<?xml version="1.0" encoding="UTF-8"?>

<!-- generated on 2025-02-18 11:28:45.630520 by osmWebWizard.py v1_21_0+0000-d7b3b481c43
<configuration>
    <net-file value="C:\Users\apurv\2025-02-18-11-23-40\osm.net.xml.gz"/>
    <output-trip-file value="C:\Users\apurv\2025-02-18-11-23-40\osm.truck.trips.xml"/>
    <route-file value="C:\Users\apurv\2025-02-18-11-23-40\osm.truck.rou.xml"/>
    <prefix value="truck"/>
    <trip-attributes value="departLane=&quot;best&quot;"/>
    <fringe-start-attributes value="departSpeed=&quot;max&quot;"/>
    <vehicle-class value="truck"/>
    <fringe-factor value="5"/>
    <vclass value="truck"/>
    <via-edge-types value="highway.motorway,highway.motorway_link,highway.trunk_link,highway.primary_link,highway.secondary_link,highway.tertiary_link"/>
    <min-distance value="600.0"/>
    <min-distance.fringe value="10.0"/>
    <remove-loops value="True"/>
    <validate value="True"/>
    <end value="2100.0"/>
    <insertion-density value="0.5"/>
</configuration>
-->

<!-- generated on 2025-02-18 11:28:31 by Eclipse SUMO duarouter Version 1.21.0
<duarouterConfiguration xmlns:xsi="http://www.w3.org/2001/XMLSchema-instance" xsi:noNamespaceSchemaLocation="http://sumo.dlr.de/xsd/duarouterConfiguration.xsd">

    <input>
        <net-file value="C:\Users\apurv\2025-02-18-11-23-40\osm.net.xml.gz"/>
        <route-files value="C:\Users\apurv\2025-02-18-11-23-40\osm.truck.trips.xml"/>
    </input>

    <output>
        <output-file value="C:\Users\apurv\2025-02-18-11-23-40\osm.truck.trips.xml.tmp"/>
        <alternatives-output value="NUL"/>
        <write-trips value="true"/>
    </output>

    <processing>
        <remove-loops value="true"/>
    </processing>

    <time>
        <begin value="0.0"/>
        <end value="2100.0"/>
    </time>

    <report>
        <no-warnings value="true"/>
        <ignore-errors value="true"/>
        <no-step-log value="true"/>
    </report>

</duarouterConfiguration>
-->

<routes xmlns:xsi="http://www.w3.org/2001/XMLSchema-instance" xsi:noNamespaceSchemaLocation="http://sumo.dlr.de/xsd/routes_file.xsd">
    <trip id="truck0" type="truck_truck" depart="0.00" departLane="best" from="-17177630#0" to="-1209856693#0"/>
    <trip id="truck1" type="truck_truck" depart="1.70" departLane="best" departSpeed="max" from="-17188054#3" to="-17188885"/>
    <trip id="truck2" type="truck_truck" depart="3.41" departLane="best" from="17186514#1" to="17186087#2"/>
    <trip id="truck3" type="truck_truck" depart="5.11" departLane="best" from="-49173386#1" to="-17176606#0"/>
    <trip id="truck4" type="truck_truck" depart="6.82" departLane="best" departSpeed="max" from="-337852250" to="132400898#2"/>
    <trip id="truck5" type="truck_truck" depart="8.52" departLane="best" from="-17184452" to="17174526#1"/>
    <trip id="truck6" type="truck_truck" depart="10.23" departLane="best" from="-1209186305#1" to="17190091#2"/>
    <trip id="truck7" type="truck_truck" depart="11.93" departLane="best" from="17178460#6" to="17177050#0"/>
    <trip id="truck8" type="truck_truck" depart="13.64" departLane="best" from="-17184592#2" to="17179737"/>
    <trip id="truck9" type="truck_truck" depart="15.34" departLane="best" from="17191494" to="-1076724897#5"/>
    <trip id="truck10" type="truck_truck" depart="17.05" departLane="best" from="17191212#2" to="17187204#1"/>
    <trip id="truck11" type="truck_truck" depart="18.75" departLane="best" from="-17191523#2" to="-17183028#0"/>
    <trip id="truck12" type="truck_truck" depart="20.46" departLane="best" from="-739251517#2" to="-574551594#3"/>
    <trip id="truck13" type="truck_truck" depart="22.16" departLane="best" from="-17175611#1" to="-17177467"/>
    <trip id="truck14" type="truck_truck" depart="23.87" departLane="best" from="17194440" to="17180862#0"/>
    <trip id="truck15" type="truck_truck" depart="25.57" departLane="best" from="17191293" to="17188914#2"/>
    <trip id="truck16" type="truck_truck" depart="27.28" departLane="best" from="1078041536#1" to="876388723"/>
    <trip id="truck17" type="truck_truck" depart="28.98" departLane="best" from="17193748#0" to="17177496"/>
    <trip id="truck18" type="truck_truck" depart="30.69" departLane="best" from="-17193081#2" to="17181997"/>
    <trip id="truck19" type="truck_truck" depart="32.39" departLane="best" from="-247972423#2" to="17179017"/>
    <trip id="truck20" type="truck_truck" depart="34.10" departLane="best" from="17183558#2" to="-17172831#0"/>
    <trip id="truck21" type="truck_truck" depart="35.80" departLane="best" departSpeed="max" from="-17185126" to="-17193862"/>
    <trip id="truck22" type="truck_truck" depart="37.51" departLane="best" from="-17174835#1" to="-17189630#5"/>
    <trip id="truck23" type="truck_truck" depart="39.21" departLane="best" from="-17176195#1" to="-17175111#2"/>
    <trip id="truck24" type="truck_truck" depart="40.91" departLane="best" from="17177274#0" to="-657717065#2"/>
    <trip id="truck25" type="truck_truck" depart="42.62" departLane="best" from="-17193320#0" to="-17187855#1"/>
    <trip id="truck26" type="truck_truck" depart="44.32" departLane="best" from="-17187574#1" to="657748536#1"/>
    <trip id="truck27" type="truck_truck" depart="46.03" departLane="best" from="190135092" to="17181249#2"/>
    <trip id="truck28" type="truck_truck" depart="47.73" departLane="best" from="-17180906" to="-17188869"/>
    <trip id="truck29" type="truck_truck" depart="49.44" departLane="best" departSpeed="max" from="-17180241" to="726077588"/>
    <trip id="truck30" type="truck_truck" depart="51.14" departLane="best" from="93952110#0" to="17183331#0"/>
    <trip id="truck31" type="truck_truck" depart="52.85" departLane="best" from="1209851052#0" to="17186498#0"/>
    <trip id="truck32" type="truck_truck" depart="54.55" departLane="best" from="17194138#4" to="-17191246#1"/>
    <trip id="truck33" type="truck_truck" depart="56.26" departLane="best" from="-17185246#4" to="-1356343623"/>
    <trip id="truck34" type="truck_truck" depart="57.96" departLane="best" from="-17190229#1" to="-17192036#0"/>
    <trip id="truck35" type="truck_truck" depart="59.67" departLane="best" from="17183818#0" to="685783741#0"/>
    <trip id="truck36" type="truck_truck" depart="61.37" departLane="best" from="1076234455#3" to="281971297#3"/>
    <trip id="truck37" type="truck_truck" depart="63.08" departLane="best" departSpeed="max" from="17178957" to="-85923427#2"/>
    <trip id="truck38" type="truck_truck" depart="64.78" departLane="best" from="-656588634#2" to="132397016#0"/>
    <trip id="truck39" type="truck_truck" depart="66.49" departLane="best" from="-17187434#7" to="17190621#0"/>
    <trip id="truck40" type="truck_truck" depart="68.19" departLane="best" from="1272858398" to="-17191625#2"/>
    <trip id="truck41" type="truck_truck" depart="69.90" departLane="best" from="17172831#2" to="607405848"/>
    <trip id="truck42" type="truck_truck" depart="71.60" departLane="best" departSpeed="max" from="-22958732" to="-17188594#0"/>
    <trip id="truck43" type="truck_truck" depart="73.31" departLane="best" from="-993363754" to="17174794"/>
    <trip id="truck44" type="truck_truck" depart="75.01" departLane="best" from="-17175499#0" to="-17172966"/>
    <trip id="truck45" type="truck_truck" depart="76.72" departLane="best" from="-17176837#1" to="17182476"/>
    <trip id="truck46" type="truck_truck" depart="78.42" departLane="best" from="17190453#0" to="1057197785"/>
    <trip id="truck47" type="truck_truck" depart="80.12" departLane="best" departSpeed="max" from="-17173660" to="739251511#2"/>
    <trip id="truck48" type="truck_truck" depart="81.83" departLane="best" departSpeed="max" from="985007192" to="17176019#3"/>
    <trip id="truck49" type="truck_truck" depart="83.53" departLane="best" from="850802845#2" to="283133312#0"/>
    <trip id="truck50" type="truck_truck" depart="85.24" departLane="best" from="-1091898952#2" to="17188444#4"/>
    <trip id="truck51" type="truck_truck" depart="86.94" departLane="best" departSpeed="max" from="17181408" to="17176586"/>
    <trip id="truck52" type="truck_truck" depart="88.65" departLane="best" from="17187759#1" to="17183344#1"/>
    <trip id="truck53" type="truck_truck" depart="90.35" departLane="best" from="-17176956#0" to="1109600687#3"/>
    <trip id="truck54" type="truck_truck" depart="92.06" departLane="best" from="657499248#1" to="742912815#1"/>
    <trip id="truck55" type="truck_truck" depart="93.76" departLane="best" from="32345058" to="-17191651#1"/>
    <trip id="truck56" type="truck_truck" depart="95.47" departLane="best" from="857341225#6" to="17185546#1"/>
    <trip id="truck57" type="truck_truck" depart="97.17" departLane="best" from="-656537662#1" to="337852250"/>
    <trip id="truck58" type="truck_truck" depart="98.88" departLane="best" departSpeed="max" from="-17189299#1" to="17183260"/>
    <trip id="truck59" type="truck_truck" depart="100.58" departLane="best" from="17175029#0" to="17182716"/>
    <trip id="truck60" type="truck_truck" depart="102.29" departLane="best" from="17188318#2" to="17176746#0"/>
    <trip id="truck61" type="truck_truck" depart="103.99" departLane="best" from="17189516#1" to="17176088#2"/>
    <trip id="truck62" type="truck_truck" depart="105.70" departLane="best" from="-1000060606#0" to="-357539141#0"/>
    <trip id="truck63" type="truck_truck" depart="107.40" departLane="best" from="-1144381153#4" to="-657717073#1"/>
    <trip id="truck64" type="truck_truck" depart="109.11" departLane="best" from="32683773#0" to="17194255"/>
    <trip id="truck65" type="truck_truck" depart="110.81" departLane="best" from="-17189864" to="-17174104#0"/>
    <trip id="truck66" type="truck_truck" depart="112.52" departLane="best" departSpeed="max" from="326558389#0" to="712057173"/>
    <trip id="truck67" type="truck_truck" depart="114.22" departLane="best" departSpeed="max" from="-17175212" to="17173032#15"/>
    <trip id="truck68" type="truck_truck" depart="115.92" departLane="best" departSpeed="max" from="-17174112#2" to="17190605#2"/>
    <trip id="truck69" type="truck_truck" depart="117.63" departLane="best" from="-17188545#0" to="17180311#1"/>
    <trip id="truck70" type="truck_truck" depart="119.33" departLane="best" from="-663359426#0" to="17177384"/>
    <trip id="truck71" type="truck_truck" depart="121.04" departLane="best" from="-17187453#0" to="-351676103"/>
    <trip id="truck72" type="truck_truck" depart="122.74" departLane="best" departSpeed="max" from="-351198491" to="-17188030#0"/>
    <trip id="truck73" type="truck_truck" depart="124.45" departLane="best" from="1091898968#4" to="17188914#7"/>
    <trip id="truck74" type="truck_truck" depart="126.15" departLane="best" from="-17183066#0" to="252990556#0"/>
    <trip id="truck75" type="truck_truck" depart="127.86" departLane="best" departSpeed="max" from="97984021#0" to="17184174#1"/>
    <trip id="truck76" type="truck_truck" depart="129.56" departLane="best" from="-582604624#0" to="17175271#1"/>
    <trip id="truck77" type="truck_truck" depart="131.27" departLane="best" from="-17177597#1" to="17188975#0"/>
    <trip id="truck78" type="truck_truck" depart="132.97" departLane="best" from="17191373#6" to="17179700"/>
    <trip id="truck79" type="truck_truck" depart="134.68" departLane="best" departSpeed="max" from="-17185360#1" to="-17188686#0"/>
    <trip id="truck80" type="truck_truck" depart="136.38" departLane="best" from="-17174197" to="-17182691#2"/>
    <trip id="truck81" type="truck_truck" depart="138.09" departLane="best" from="-17185246#2" to="656588581"/>
    <trip id="truck82" type="truck_truck" depart="139.79" departLane="best" from="246261870#4-AddedOffRampEdge" to="17175193"/>
    <trip id="truck83" type="truck_truck" depart="141.50" departLane="best" departSpeed="max" from="-17185942#9" to="17185527"/>
    <trip id="truck84" type="truck_truck" depart="143.20" departLane="best" from="-17184174#1" to="-17180847#0"/>
    <trip id="truck85" type="truck_truck" depart="144.91" departLane="best" from="657717056#1" to="17178686#1"/>
    <trip id="truck86" type="truck_truck" depart="146.61" departLane="best" from="-658021866#7" to="17191736"/>
    <trip id="truck87" type="truck_truck" depart="148.32" departLane="best" from="-17191333" to="-17186462#8"/>
    <trip id="truck88" type="truck_truck" depart="150.02" departLane="best" from="-17175939#1" to="-1091898952#1"/>
    <trip id="truck89" type="truck_truck" depart="151.73" departLane="best" departSpeed="max" from="-352678529" to="1359520264#0"/>
    <trip id="truck90" type="truck_truck" depart="153.43" departLane="best" departSpeed="max" from="17186065" to="17185878"/>
    <trip id="truck91" type="truck_truck" depart="155.13" departLane="best" from="93611660#0" to="17177690#1"/>
    <trip id="truck92" type="truck_truck" depart="156.84" departLane="best" from="-246270794" to="-58671648#0"/>
    <trip id="truck93" type="truck_truck" depart="158.54" departLane="best" from="-247972423#1" to="17190729#2"/>
    <trip id="truck94" type="truck_truck" depart="160.25" departLane="best" from="-17182377" to="1208890845#1"/>
    <trip id="truck95" type="truck_truck" depart="161.95" departLane="best" departSpeed="max" from="-337852250" to="-17192943#2"/>
    <trip id="truck96" type="truck_truck" depart="163.66" departLane="best" departSpeed="max" from="-17186583" to="-657687641"/>
    <trip id="truck97" type="truck_truck" depart="165.36" departLane="best" departSpeed="max" from="-624604949" to="291393930#1"/>
    <trip id="truck98" type="truck_truck" depart="167.07" departLane="best" from="1175531132" to="17173209#1"/>
    <trip id="truck99" type="truck_truck" depart="168.77" departLane="best" from="-997798601#0" to="178872035#4"/>
    <trip id="truck100" type="truck_truck" depart="170.48" departLane="best" departSpeed="max" from="848758233#0" to="657717037#7"/>
    <trip id="truck101" type="truck_truck" depart="172.18" departLane="best" from="-176062609#7" to="17184387#3"/>
    <trip id="truck102" type="truck_truck" depart="173.89" departLane="best" departSpeed="max" from="-739251517#7" to="-17188181#2"/>
    <trip id="truck103" type="truck_truck" depart="175.59" departLane="best" from="-245010316#1" to="-17174138"/>
    <trip id="truck104" type="truck_truck" depart="177.30" departLane="best" departSpeed="max" from="-17193768" to="-93816732#3"/>
    <trip id="truck105" type="truck_truck" depart="179.00" departLane="best" from="-17187455#1" to="17191730"/>
    <trip id="truck106" type="truck_truck" depart="180.71" departLane="best" from="-657499286" to="1064633199"/>
    <trip id="truck107" type="truck_truck" depart="182.41" departLane="best" from="-739251518#1" to="-984989662"/>
    <trip id="truck108" type="truck_truck" depart="184.12" departLane="best" from="1209186305#0" to="17188324#1"/>
    <trip id="truck109" type="truck_truck" depart="185.82" departLane="best" from="-17179693#1" to="-17194348"/>
    <trip id="truck110" type="truck_truck" depart="187.53" departLane="best" from="-84810480" to="17179177"/>
    <trip id="truck111" type="truck_truck" depart="189.23" departLane="best" from="1109605717#0" to="17189910#1"/>
    <trip id="truck112" type="truck_truck" depart="190.94" departLane="best" from="17173099#1" to="17179439"/>
    <trip id="truck113" type="truck_truck" depart="192.64" departLane="best" from="-876388722" to="252219895#1"/>
    <trip id="truck114" type="truck_truck" depart="194.34" departLane="best" from="17179799#5" to="839714705"/>
    <trip id="truck115" type="truck_truck" depart="196.05" departLane="best" departSpeed="max" from="-17174842#2" to="17190742#1"/>
    <trip id="truck116" type="truck_truck" depart="197.75" departLane="best" from="-17173874#1" to="17186004"/>
    <trip id="truck117" type="truck_truck" depart="199.46" departLane="best" departSpeed="max" from="-17185670#3" to="17179613#1"/>
    <trip id="truck118" type="truck_truck" depart="201.16" departLane="best" from="432389805#3" to="-17190613#2"/>
    <trip id="truck119" type="truck_truck" depart="202.87" departLane="best" from="17173750#1" to="-17182061#2"/>
    <trip id="truck120" type="truck_truck" depart="204.57" departLane="best" from="-32491830#5" to="17179400#2"/>
    <trip id="truck121" type="truck_truck" depart="206.28" departLane="best" from="-993772735#9" to="657748483"/>
    <trip id="truck122" type="truck_truck" depart="207.98" departLane="best" departSpeed="max" from="-17183295#5" to="17188202#0"/>
    <trip id="truck123" type="truck_truck" depart="209.69" departLane="best" from="-17186004" to="-859303769"/>
    <trip id="truck124" type="truck_truck" depart="211.39" departLane="best" from="76534011" to="186847231#2"/>
    <trip id="truck125" type="truck_truck" depart="213.10" departLane="best" from="-17190293#2" to="17190078#1"/>
    <trip id="truck126" type="truck_truck" depart="214.80" departLane="best" departSpeed="max" from="-17174282" to="1313496955"/>
    <trip id="truck127" type="truck_truck" depart="216.51" departLane="best" from="993994387#0" to="989171916#1"/>
    <trip id="truck128" type="truck_truck" depart="218.21" departLane="best" departSpeed="max" from="-17174356" to="-17188172#2"/>
    <trip id="truck129" type="truck_truck" depart="219.92" departLane="best" from="-17187455#1" to="-657748417#1"/>
    <trip id="truck130" type="truck_truck" depart="221.62" departLane="best" from="351198490#1" to="41758734"/>
    <trip id="truck131" type="truck_truck" depart="223.33" departLane="best" departSpeed="max" from="-17193296" to="-17183233#0"/>
    <trip id="truck132" type="truck_truck" depart="225.03" departLane="best" from="17193452#2" to="17187529"/>
    <trip id="truck133" type="truck_truck" depart="226.74" departLane="best" from="-17175248#0" to="-93827401#0"/>
    <trip id="truck134" type="truck_truck" depart="228.44" departLane="best" from="17178836" to="-1078041536#0"/>
    <trip id="truck135" type="truck_truck" depart="230.15" departLane="best" from="17192040" to="-978708324#0"/>
    <trip id="truck136" type="truck_truck" depart="231.85" departLane="best" from="17179665#3" to="658614728"/>
    <trip id="truck137" type="truck_truck" depart="233.55" departLane="best" from="-17178422#0" to="17179181"/>
    <trip id="truck138" type="truck_truck" depart="235.26" departLane="best" from="-17176704#0" to="17177630#1"/>
    <trip id="truck139" type="truck_truck" depart="236.96" departLane="best" departSpeed="max" from="-17187920#1" to="17180902"/>
    <trip id="truck140" type="truck_truck" depart="238.67" departLane="best" from="-17184952#2" to="-17187434#0"/>
    <trip id="truck141" type="truck_truck" depart="240.37" departLane="best" from="17177088#1" to="-17191682#0"/>
    <trip id="truck142" type="truck_truck" depart="242.08" departLane="best" departSpeed="max" from="-757218019" to="656588559#1"/>
    <trip id="truck143" type="truck_truck" depart="243.78" departLane="best" departSpeed="max" from="17194308" to="17177046#2"/>
    <trip id="truck144" type="truck_truck" depart="245.49" departLane="best" departSpeed="max" from="-352678529" to="-17192822#1"/>
    <trip id="truck145" type="truck_truck" depart="247.19" departLane="best" from="-1018609998#1" to="17191023"/>
    <trip id="truck146" type="truck_truck" depart="248.90" departLane="best" from="-17177412#1" to="17191549#1"/>
    <trip id="truck147" type="truck_truck" depart="250.60" departLane="best" from="-17186868" to="17177473"/>
    <trip id="truck148" type="truck_truck" depart="252.31" departLane="best" from="41869338" to="1091898952#2"/>
    <trip id="truck149" type="truck_truck" depart="254.01" departLane="best" from="-17174526#0" to="483875735"/>
    <trip id="truck150" type="truck_truck" depart="255.72" departLane="best" from="583609488" to="17177062#2"/>
    <trip id="truck151" type="truck_truck" depart="257.42" departLane="best" departSpeed="max" from="17193538" to="17179372#2"/>
    <trip id="truck152" type="truck_truck" depart="259.13" departLane="best" from="-17179289#1" to="-17180194#2"/>
    <trip id="truck153" type="truck_truck" depart="260.83" departLane="best" from="-17189905#0" to="-657717019#0"/>
    <trip id="truck154" type="truck_truck" depart="262.54" departLane="best" from="17190702#1" to="281971889"/>
    <trip id="truck155" type="truck_truck" depart="264.24" departLane="best" from="570066571#0" to="17187875#2"/>
    <trip id="truck156" type="truck_truck" depart="265.95" departLane="best" from="-17186572#0" to="-17178001"/>
    <trip id="truck157" type="truck_truck" depart="267.65" departLane="best" from="-17189585#0" to="49298836#2"/>
    <trip id="truck158" type="truck_truck" depart="269.35" departLane="best" from="-252219706#5" to="17182102"/>
    <trip id="truck159" type="truck_truck" depart="271.06" departLane="best" departSpeed="max" from="-17179677" to="657717102#14"/>
    <trip id="truck160" type="truck_truck" depart="272.76" departLane="best" from="252561211#1" to="887387091#0"/>
    <trip id="truck161" type="truck_truck" depart="274.47" departLane="best" from="17191570" to="435894029#2"/>
    <trip id="truck162" type="truck_truck" depart="276.17" departLane="best" from="-1208890837#1" to="17189240"/>
    <trip id="truck163" type="truck_truck" depart="277.88" departLane="best" from="-17191038#2" to="657748363#1"/>
    <trip id="truck164" type="truck_truck" depart="279.58" departLane="best" from="17191004#3" to="306849393#3"/>
    <trip id="truck165" type="truck_truck" depart="281.29" departLane="best" from="17191570" to="-17191940#2"/>
    <trip id="truck166" type="truck_truck" depart="282.99" departLane="best" from="-17190078#2" to="-17178460#6"/>
    <trip id="truck167" type="truck_truck" depart="284.70" departLane="best" departSpeed="max" from="300336241#0" to="254407379#1-AddedOffRampEdge"/>
    <trip id="truck168" type="truck_truck" depart="286.40" departLane="best" from="-17184771#1" to="17193569#1"/>
    <trip id="truck169" type="truck_truck" depart="288.11" departLane="best" from="-657716997#1" to="-24576209#4"/>
    <trip id="truck170" type="truck_truck" depart="289.81" departLane="best" from="17190669#0" to="-17189198#4"/>
    <trip id="truck171" type="truck_truck" depart="291.52" departLane="best" from="-1201224023" to="-17186687#0"/>
    <trip id="truck172" type="truck_truck" depart="293.22" departLane="best" departSpeed="max" from="-17190878#1" to="306849394#1"/>
    <trip id="truck173" type="truck_truck" depart="294.93" departLane="best" from="844926656#1" to="-17193022#1"/>
    <trip id="truck174" type="truck_truck" depart="296.63" departLane="best" from="17177727#2" to="887401013#0"/>
    <trip id="truck175" type="truck_truck" depart="298.34" departLane="best" from="913003729#3" to="17176557#1"/>
    <trip id="truck176" type="truck_truck" depart="300.04" departLane="best" from="657748373#0" to="-17179172#2"/>
    <trip id="truck177" type="truck_truck" depart="301.75" departLane="best" from="-850802844#11" to="-17185534#2"/>
    <trip id="truck178" type="truck_truck" depart="303.45" departLane="best" departSpeed="max" from="8094977" to="-17191800"/>
    <trip id="truck179" type="truck_truck" depart="305.16" departLane="best" from="17176746#6" to="1107739619"/>
    <trip id="truck180" type="truck_truck" depart="306.86" departLane="best" from="17186033#0" to="253263038#1"/>
    <trip id="truck181" type="truck_truck" depart="308.56" departLane="best" from="-17174842#0" to="17174938#2"/>
    <trip id="truck182" type="truck_truck" depart="310.27" departLane="best" from="-17194086#1" to="17178965"/>
    <trip id="truck183" type="truck_truck" depart="311.97" departLane="best" departSpeed="max" from="-17186838#1" to="17187841"/>
    <trip id="truck184" type="truck_truck" depart="313.68" departLane="best" from="-1000648233#4" to="-657717020#2"/>
    <trip id="truck185" type="truck_truck" depart="315.38" departLane="best" from="1091663347#0" to="-17188380#2"/>
    <trip id="truck186" type="truck_truck" depart="317.09" departLane="best" from="-17186955#0" to="-17185633#1"/>
    <trip id="truck187" type="truck_truck" depart="318.79" departLane="best" departSpeed="max" from="-17192947" to="-17175097"/>
    <trip id="truck188" type="truck_truck" depart="320.50" departLane="best" from="17179722#0" to="-47707261"/>
    <trip id="truck189" type="truck_truck" depart="322.20" departLane="best" from="17190123#2" to="246570887"/>
    <trip id="truck190" type="truck_truck" depart="323.91" departLane="best" from="-17185080" to="-187985232"/>
    <trip id="truck191" type="truck_truck" depart="325.61" departLane="best" from="17189939#1" to="-93952122#2"/>
    <trip id="truck192" type="truck_truck" depart="327.32" departLane="best" from="-246261673#7" to="-17194266#1"/>
    <trip id="truck193" type="truck_truck" depart="329.02" departLane="best" departSpeed="max" from="-17177964#4" to="-1018609998#6"/>
    <trip id="truck194" type="truck_truck" depart="330.73" departLane="best" from="-657748409#1" to="17186111#2"/>
    <trip id="truck195" type="truck_truck" depart="332.43" departLane="best" departSpeed="max" from="58267756#0" to="17181787"/>
    <trip id="truck196" type="truck_truck" depart="334.14" departLane="best" departSpeed="max" from="-17189464#1" to="17177277"/>
    <trip id="truck197" type="truck_truck" depart="335.84" departLane="best" departSpeed="max" from="-1000060593#1" to="-17193659#0"/>
    <trip id="truck198" type="truck_truck" depart="337.55" departLane="best" from="-470078719#0" to="17179212#1"/>
    <trip id="truck199" type="truck_truck" depart="339.25" departLane="best" from="-17178924#1" to="656588646#3"/>
    <trip id="truck200" type="truck_truck" depart="340.96" departLane="best" departSpeed="max" from="-61955709#1" to="-17188181#1"/>
    <trip id="truck201" type="truck_truck" depart="342.66" departLane="best" from="-658614377#1" to="62009431"/>
    <trip id="truck202" type="truck_truck" depart="344.37" departLane="best" from="17190699" to="-17184635#3"/>
    <trip id="truck203" type="truck_truck" depart="346.07" departLane="best" from="-17175133#2" to="17175175"/>
    <trip id="truck204" type="truck_truck" depart="347.77" departLane="best" from="17176976#3" to="530366794#0"/>
    <trip id="truck205" type="truck_truck" depart="349.48" departLane="best" departSpeed="max" from="17192128#0" to="17190014#1"/>
    <trip id="truck206" type="truck_truck" depart="351.18" departLane="best" from="17180496#1" to="17188959#0"/>
    <trip id="truck207" type="truck_truck" depart="352.89" departLane="best" departSpeed="max" from="-17182902#2" to="-1209851042#0"/>
    <trip id="truck208" type="truck_truck" depart="354.59" departLane="best" from="-17186319" to="158080704#1"/>
    <trip id="truck209" type="truck_truck" depart="356.30" departLane="best" departSpeed="max" from="186723609#0" to="-17175370#0"/>
    <trip id="truck210" type="truck_truck" depart="358.00" departLane="best" from="-291393930#8" to="17182579#1"/>
    <trip id="truck211" type="truck_truck" depart="359.71" departLane="best" from="-17182570#8" to="17187105#0"/>
    <trip id="truck212" type="truck_truck" depart="361.41" departLane="best" departSpeed="max" from="-844907528" to="-17190453#1"/>
    <trip id="truck213" type="truck_truck" depart="363.12" departLane="best" from="-17179020#0" to="1076230027#1"/>
    <trip id="truck214" type="truck_truck" depart="364.82" departLane="best" from="-17187502#2" to="17190962"/>
    <trip id="truck215" type="truck_truck" depart="366.53" departLane="best" from="-17176662" to="1076230025#3"/>
    <trip id="truck216" type="truck_truck" depart="368.23" departLane="best" departSpeed="max" from="-17181329#1" to="799602771#0"/>
    <trip id="truck217" type="truck_truck" depart="369.94" departLane="best" from="952895728#1" to="17173186#6"/>
    <trip id="truck218" type="truck_truck" depart="371.64" departLane="best" from="17186550#4" to="246755288#0"/>
    <trip id="truck219" type="truck_truck" depart="373.35" departLane="best" from="-657687252" to="17192700#1"/>
    <trip id="truck220" type="truck_truck" depart="375.05" departLane="best" from="-17179995#0" to="93907547#3"/>
    <trip id="truck221" type="truck_truck" depart="376.76" departLane="best" from="17173956#1" to="732388591"/>
    <trip id="truck222" type="truck_truck" depart="378.46" departLane="best" departSpeed="max" from="442469080" to="17181565#1"/>
    <trip id="truck223" type="truck_truck" depart="380.17" departLane="best" from="-17185059#0" to="17174477#1"/>
    <trip id="truck224" type="truck_truck" depart="381.87" departLane="best" from="-17193187#2" to="17177277"/>
    <trip id="truck225" type="truck_truck" depart="383.58" departLane="best" from="526342596#3" to="-17189630#11"/>
    <trip id="truck226" type="truck_truck" depart="385.28" departLane="best" from="-659807225#2" to="-17191339#1"/>
    <trip id="truck227" type="truck_truck" depart="386.98" departLane="best" from="-17186462#6" to="17183156#0"/>
    <trip id="truck228" type="truck_truck" depart="388.69" departLane="best" from="-17188530" to="17175497#2"/>
    <trip id="truck229" type="truck_truck" depart="390.39" departLane="best" from="-17176557#0" to="-17192669"/>
    <trip id="truck230" type="truck_truck" depart="392.10" departLane="best" from="-17174698#3" to="-17193586#6"/>
    <trip id="truck231" type="truck_truck" depart="393.80" departLane="best" departSpeed="max" from="-17187875#5" to="-32490872"/>
    <trip id="truck232" type="truck_truck" depart="395.51" departLane="best" from="-1091899023#0" to="-17181404#4"/>
    <trip id="truck233" type="truck_truck" depart="397.21" departLane="best" departSpeed="max" from="-17185422" to="17186980#4"/>
    <trip id="truck234" type="truck_truck" depart="398.92" departLane="best" from="17183818#2" to="-17174684#2"/>
    <trip id="truck235" type="truck_truck" depart="400.62" departLane="best" from="252561943#18" to="17176952"/>
    <trip id="truck236" type="truck_truck" depart="402.33" departLane="best" departSpeed="max" from="-306582915" to="17187654#1"/>