<?xml version="1.0" encoding="UTF-8"?>

<!-- generated on 2025-02-18 11:28:03.608125 by osmWebWizard.py v1_21_0+0000-d7b3b481c43
<configuration>
    <net-file value="C:\Users\apurv\2025-02-18-11-23-40\osm.net.xml.gz"/>
    <output-trip-file value="C:\Users\apurv\2025-02-18-11-23-40\osm.passenger.trips.xml"/>
    <route-file value="C:\Users\apurv\2025-02-18-11-23-40\osm.passenger.rou.xml"/>
    <prefix value="veh"/>
    <trip-attributes value="departLane=&quot;best&quot;"/>
    <fringe-start-attributes value="departSpeed=&quot;max&quot;"/>
    <vehicle-class value="passenger"/>
    <lanes value="True"/>
    <fringe-factor value="3"/>
    <allow-fringe.min-length value="1000.0"/>
    <via-edge-types value="highway.motorway,highway.motorway_link,highway.trunk_link,highway.primary_link,highway.secondary_link,highway.tertiary_link"/>
    <min-distance value="300.0"/>
    <min-distance.fringe value="10.0"/>
    <remove-loops value="True"/>
    <validate value="True"/>
    <end value="2100.0"/>
    <insertion-density value="3.3"/>
</configuration>
-->

<!-- generated on 2025-02-18 11:26:13 by Eclipse SUMO duarouter Version 1.21.0
<duarouterConfiguration xmlns:xsi="http://www.w3.org/2001/XMLSchema-instance" xsi:noNamespaceSchemaLocation="http://sumo.dlr.de/xsd/duarouterConfiguration.xsd">

    <input>
        <net-file value="C:\Users\apurv\2025-02-18-11-23-40\osm.net.xml.gz"/>
        <route-files value="C:\Users\apurv\2025-02-18-11-23-40\osm.passenger.trips.xml"/>
    </input>

    <output>
        <output-file value="C:\Users\apurv\2025-02-18-11-23-40\osm.passenger.trips.xml.tmp"/>
        <alternatives-output value="NUL"/>
        <write-trips value="true"/>
    </output>

    <processing>
        <remove-loops value="true"/>
    </processing>

    <time>
        <begin value="0.0"/>
        <end value="2100.0"/>
    </time>

    <report>
        <no-warnings value="true"/>
        <ignore-errors value="true"/>
        <no-step-log value="true"/>
    </report>

</duarouterConfiguration>
-->

<routes xmlns:xsi="http://www.w3.org/2001/XMLSchema-instance" xsi:noNamespaceSchemaLocation="http://sumo.dlr.de/xsd/routes_file.xsd">
    <trip id="veh0" type="veh_passenger" depart="0.00" departLane="best" from="-17178928#2" to="-1208890840#0"/>
    <trip id="veh1" type="veh_passenger" depart="0.26" departLane="best" from="-17189216" to="-17188507#0"/>
    <trip id="veh2" type="veh_passenger" depart="0.52" departLane="best" from="17187755" to="-17185940#2"/>
    <trip id="veh3" type="veh_passenger" depart="0.77" departLane="best" from="58428736#1" to="-17175665#1"/>
    <trip id="veh4" type="veh_passenger" depart="1.03" departLane="best" from="657687320#1" to="-1234667752#0"/>
    <trip id="veh5" type="veh_passenger" depart="1.29" departLane="best" departSpeed="max" from="-17185561" to="167373192#2"/>
    <trip id="veh6" type="veh_passenger" depart="1.55" departLane="best" from="-1208890835#1" to="-17186655#0"/>
    <trip id="veh7" type="veh_passenger" depart="1.81" departLane="best" from="17179799#3" to="17175567"/>
    <trip id="veh8" type="veh_passenger" depart="2.07" departLane="best" from="-17185712#0" to="17178809"/>
    <trip id="veh9" type="veh_passenger" depart="2.32" departLane="best" from="-17193090#3" to="-1076230025#3"/>
    <trip id="veh10" type="veh_passenger" depart="2.58" departLane="best" from="-17192822#0" to="17187190"/>
    <trip id="veh11" type="veh_passenger" depart="2.84" departLane="best" departSpeed="max" from="-17193410" to="-17182330#1"/>
    <trip id="veh12" type="veh_passenger" depart="3.10" departLane="best" from="793218598#0" to="-524817866#1"/>
    <trip id="veh13" type="veh_passenger" depart="3.36" departLane="best" from="-17175397" to="17176692#4"/>
    <trip id="veh14" type="veh_passenger" depart="3.62" departLane="best" from="-252219706#5" to="-17179799#10"/>
    <trip id="veh15" type="veh_passenger" depart="3.87" departLane="best" from="17192905" to="17189048#0"/>
    <trip id="veh16" type="veh_passenger" depart="4.13" departLane="best" from="1282097501#1" to="886993640#5"/>
    <trip id="veh17" type="veh_passenger" depart="4.39" departLane="best" from="-290617732#0" to="17176184#0"/>
    <trip id="veh18" type="veh_passenger" depart="4.65" departLane="best" from="179220977#1" to="17181061#1"/>
    <trip id="veh19" type="veh_passenger" depart="4.91" departLane="best" from="32491830#7" to="17178002"/>
    <trip id="veh20" type="veh_passenger" depart="5.17" departLane="best" from="17185360#0" to="-1359794900"/>
    <trip id="veh21" type="veh_passenger" depart="5.42" departLane="best" from="-17186268#1" to="-17193659#1"/>
    <trip id="veh22" type="veh_passenger" depart="5.68" departLane="best" from="-17174454" to="-17189283#0"/>
    <trip id="veh23" type="veh_passenger" depart="5.94" departLane="best" departSpeed="max" from="-17176019#3" to="-17192734#1"/>
    <trip id="veh24" type="veh_passenger" depart="6.20" departLane="best" from="17178649#0" to="-657717003#2"/>
    <trip id="veh25" type="veh_passenger" depart="6.46" departLane="best" from="-247979030#6" to="17187455#0"/>
    <trip id="veh26" type="veh_passenger" depart="6.72" departLane="best" from="-17188828#3" to="-659143855"/>
    <trip id="veh27" type="veh_passenger" depart="6.97" departLane="best" from="17179687#0" to="17180180"/>
    <trip id="veh28" type="veh_passenger" depart="7.23" departLane="best" from="-17181526#1" to="17189030#1"/>
    <trip id="veh29" type="veh_passenger" depart="7.49" departLane="best" from="17180847#0" to="-659143958"/>
    <trip id="veh30" type="veh_passenger" depart="7.75" departLane="best" from="93952110#0" to="17182743#1"/>
    <trip id="veh31" type="veh_passenger" depart="8.01" departLane="best" from="-1359971022" to="354647089"/>
    <trip id="veh32" type="veh_passenger" depart="8.27" departLane="best" from="246572651#0" to="17191782"/>
    <trip id="veh33" type="veh_passenger" depart="8.52" departLane="best" from="17186327#0" to="-1272970294"/>
    <trip id="veh34" type="veh_passenger" depart="8.78" departLane="best" from="17191731" to="17191775#1"/>
    <trip id="veh35" type="veh_passenger" depart="9.04" departLane="best" from="-17184917#1" to="704816296#2"/>
    <trip id="veh36" type="veh_passenger" depart="9.30" departLane="best" from="442138969#0" to="-252990556#1"/>
    <trip id="veh37" type="veh_passenger" depart="9.56" departLane="best" from="17180311#2" to="-841066414#0"/>
    <trip id="veh38" type="veh_passenger" depart="9.82" departLane="best" from="657499248#3" to="-1175531133#9"/>
    <trip id="veh39" type="veh_passenger" depart="10.07" departLane="best" from="-17188686#0" to="17190304#0"/>
    <trip id="veh40" type="veh_passenger" depart="10.33" departLane="best" from="-1360564515" to="-17191403#0"/>
    <trip id="veh41" type="veh_passenger" depart="10.59" departLane="best" from="17174153#1" to="656588646#3"/>
    <trip id="veh42" type="veh_passenger" depart="10.85" departLane="best" from="530366794#4" to="-17188242"/>
    <trip id="veh43" type="veh_passenger" depart="11.11" departLane="best" from="993677015" to="17172831#1"/>
    <trip id="veh44" type="veh_passenger" depart="11.37" departLane="best" from="-17175250#5" to="-1359971023"/>
    <trip id="veh45" type="veh_passenger" depart="11.62" departLane="best" from="-17176724#2" to="17181848#1"/>
    <trip id="veh46" type="veh_passenger" depart="11.88" departLane="best" from="17191672#2" to="-993994387#0"/>
    <trip id="veh47" type="veh_passenger" depart="12.14" departLane="best" from="-17172998#0" to="-677185816"/>
    <trip id="veh48" type="veh_passenger" depart="12.40" departLane="best" departSpeed="max" from="986978003#0" to="-17174526#10"/>
    <trip id="veh49" type="veh_passenger" depart="12.66" departLane="best" from="859513011#5" to="-35305366"/>
    <trip id="veh50" type="veh_passenger" depart="12.91" departLane="best" from="-1084461561#1" to="-17188586#3"/>
    <trip id="veh51" type="veh_passenger" depart="13.17" departLane="best" from="17182904#2" to="17175057#1"/>
    <trip id="veh52" type="veh_passenger" depart="13.43" departLane="best" from="-17188828#1" to="17182804#0"/>
    <trip id="veh53" type="veh_passenger" depart="13.69" departLane="best" from="-17176882#0" to="1076234440#0"/>
    <trip id="veh54" type="veh_passenger" depart="13.95" departLane="best" departSpeed="max" from="-742912815#1" to="776396813"/>
    <trip id="veh55" type="veh_passenger" depart="14.21" departLane="best" from="-435894029#1" to="-17191481#0"/>
    <trip id="veh56" type="veh_passenger" depart="14.46" departLane="best" from="1076234443#0" to="17184827#1"/>
    <trip id="veh57" type="veh_passenger" depart="14.72" departLane="best" from="657499224#0" to="442373561#1"/>
    <trip id="veh58" type="veh_passenger" depart="14.98" departLane="best" from="17190719#2" to="17182597#2"/>
    <trip id="veh59" type="veh_passenger" depart="15.24" departLane="best" from="17176320#1" to="-17182099#4"/>
    <trip id="veh60" type="veh_passenger" depart="15.50" departLane="best" from="-17189671#0" to="17175242"/>
    <trip id="veh61" type="veh_passenger" depart="15.76" departLane="best" from="-17190765#1" to="17174645"/>
    <trip id="veh62" type="veh_passenger" depart="16.01" departLane="best" from="-1000060606#3" to="-32683697#0"/>
    <trip id="veh63" type="veh_passenger" depart="16.27" departLane="best" from="-1122559916#0" to="-657748458#6"/>
    <trip id="veh64" type="veh_passenger" depart="16.53" departLane="best" from="-49368588#1" to="245887390#1"/>
    <trip id="veh65" type="veh_passenger" depart="16.79" departLane="best" departSpeed="max" from="-17191181#1" to="-17172919#1"/>
    <trip id="veh66" type="veh_passenger" depart="17.05" departLane="best" from="49288909#1" to="732938409"/>
    <trip id="veh67" type="veh_passenger" depart="17.31" departLane="best" from="17174929#1" to="245009628#0"/>
    <trip id="veh68" type="veh_passenger" depart="17.56" departLane="best" departSpeed="max" from="-17173545" to="17190911#1"/>
    <trip id="veh69" type="veh_passenger" depart="17.82" departLane="best" from="17189939#1" to="17179613#3"/>
    <trip id="veh70" type="veh_passenger" depart="18.08" departLane="best" from="913004041" to="17176013#0"/>
    <trip id="veh71" type="veh_passenger" depart="18.34" departLane="best" from="-17188691" to="49354648"/>
    <trip id="veh72" type="veh_passenger" depart="18.60" departLane="best" departSpeed="max" from="-657687546#1" to="-17187641#3"/>
    <trip id="veh73" type="veh_passenger" depart="18.86" departLane="best" from="-132400898#7" to="17189052"/>
    <trip id="veh74" type="veh_passenger" depart="19.11" departLane="best" from="-17184016" to="-248958949#6"/>
    <trip id="veh75" type="veh_passenger" depart="19.37" departLane="best" departSpeed="max" from="97984046" to="17183524#3"/>
    <trip id="veh76" type="veh_passenger" depart="19.63" departLane="best" from="657748588#3" to="17173582"/>
    <trip id="veh77" type="veh_passenger" depart="19.89" departLane="best" from="-17177597#1" to="-17188634#0"/>
    <trip id="veh78" type="veh_passenger" depart="20.15" departLane="best" from="17193309#2" to="-17178737#4"/>
    <trip id="veh79" type="veh_passenger" depart="20.41" departLane="best" from="17186408#0" to="-17188315#2"/>
    <trip id="veh80" type="veh_passenger" depart="20.66" departLane="best" from="253263038#2" to="-17182139#5"/>
    <trip id="veh81" type="veh_passenger" depart="20.92" departLane="best" from="-17186302#1" to="-657454558#6"/>
    <trip id="veh82" type="veh_passenger" depart="21.18" departLane="best" from="-30920791#0" to="17174280#1"/>
    <trip id="veh83" type="veh_passenger" depart="21.44" departLane="best" from="-17186916#1" to="17185246#2"/>
    <trip id="veh84" type="veh_passenger" depart="21.70" departLane="best" departSpeed="max" from="-17185126" to="17179887#3"/>
    <trip id="veh85" type="veh_passenger" depart="21.96" departLane="best" from="657748483" to="17177591#1"/>
    <trip id="veh86" type="veh_passenger" depart="22.21" departLane="best" from="887401015#1" to="-17192428#2"/>
    <trip id="veh87" type="veh_passenger" depart="22.47" departLane="best" from="-17192919#1" to="-17186087#1"/>
    <trip id="veh88" type="veh_passenger" depart="22.73" departLane="best" from="-17175675#0" to="-106529552#0"/>
    <trip id="veh89" type="veh_passenger" depart="22.99" departLane="best" from="657687588#2" to="1216920702"/>
    <trip id="veh90" type="veh_passenger" depart="23.25" departLane="best" from="-17187258#1" to="17185611#1"/>
    <trip id="veh91" type="veh_passenger" depart="23.51" departLane="best" from="93816724#0" to="-17176752#0"/>
    <trip id="veh92" type="veh_passenger" depart="23.76" departLane="best" from="-58321338#1" to="574551591#6"/>
    <trip id="veh93" type="veh_passenger" depart="24.02" departLane="best" from="32491830#6" to="-17190558#0"/>
    <trip id="veh94" type="veh_passenger" depart="24.28" departLane="best" from="-17182933#0" to="132397016#0"/>
    <trip id="veh95" type="veh_passenger" depart="24.54" departLane="best" from="-657687320#0" to="-17192777"/>
    <trip id="veh96" type="veh_passenger" depart="24.80" departLane="best" from="-17187701" to="657717062#9"/>
    <trip id="veh97" type="veh_passenger" depart="25.06" departLane="best" from="-664939731" to="354647090#2"/>
    <trip id="veh98" type="veh_passenger" depart="25.31" departLane="best" from="1358509401" to="-146201777#1"/>
    <trip id="veh99" type="veh_passenger" depart="25.57" departLane="best" from="99513337#4" to="-247972419#5"/>
    <trip id="veh100" type="veh_passenger" depart="25.83" departLane="best" from="857341225#0" to="657748368#4"/>
    <trip id="veh101" type="veh_passenger" depart="26.09" departLane="best" from="252795762#1" to="17183336#1"/>
    <trip id="veh102" type="veh_passenger" depart="26.35" departLane="best" from="-975129892" to="-17187773#2"/>
    <trip id="veh103" type="veh_passenger" depart="26.60" departLane="best" from="-574629563#1" to="-17172989#0"/>
    <trip id="veh104" type="veh_passenger" depart="26.86" departLane="best" from="-291393930#4" to="93822224#5"/>
    <trip id="veh105" type="veh_passenger" depart="27.12" departLane="best" departSpeed="max" from="-17188692" to="17192383"/>
    <trip id="veh106" type="veh_passenger" depart="27.38" departLane="best" departSpeed="max" from="-751177056#3" to="997798606#0"/>
    <trip id="veh107" type="veh_passenger" depart="27.64" departLane="best" from="793218598#2" to="984989686#0"/>
    <trip id="veh108" type="veh_passenger" depart="27.90" departLane="best" from="-1359801444#1" to="17188424#1"/>
    <trip id="veh109" type="veh_passenger" depart="28.15" departLane="best" from="-17179980#0" to="17194205#2"/>
    <trip id="veh110" type="veh_passenger" depart="28.41" departLane="best" from="857341216#3" to="17178109#1"/>
    <trip id="veh111" type="veh_passenger" depart="28.67" departLane="best" from="-1356131595" to="17190168#0"/>
    <trip id="veh112" type="veh_passenger" depart="28.93" departLane="best" from="-167230523" to="17178485"/>
    <trip id="veh113" type="veh_passenger" depart="29.19" departLane="best" from="1076729524#1" to="307790885#3"/>
    <trip id="veh114" type="veh_passenger" depart="29.45" departLane="best" from="-17180169#0" to="844926663"/>
    <trip id="veh115" type="veh_passenger" depart="29.70" departLane="best" from="-17174474#3" to="-17185602#3"/>
    <trip id="veh116" type="veh_passenger" depart="29.96" departLane="best" from="17175039#0" to="17185799"/>
    <trip id="veh117" type="veh_passenger" depart="30.22" departLane="best" departSpeed="max" from="-17186714" to="-17178774#6"/>
    <trip id="veh118" type="veh_passenger" depart="30.48" departLane="best" from="58321338#3" to="977543399"/>
    <trip id="veh119" type="veh_passenger" depart="30.74" departLane="best" from="17175010#5" to="17181135#0"/>
    <trip id="veh120" type="veh_passenger" depart="31.00" departLane="best" from="1272858405" to="17173229#1"/>
    <trip id="veh121" type="veh_passenger" depart="31.25" departLane="best" from="1171572480#0" to="-658614367#3"/>
    <trip id="veh122" type="veh_passenger" depart="31.51" departLane="best" from="17184380" to="-17188315#2"/>
    <trip id="veh123" type="veh_passenger" depart="31.77" departLane="best" from="17186957#1" to="841066414#3"/>
    <trip id="veh124" type="veh_passenger" depart="32.03" departLane="best" from="-17182076#0" to="-17194442#0"/>
    <trip id="veh125" type="veh_passenger" depart="32.29" departLane="best" departSpeed="max" from="-17191741" to="17190517#2"/>
    <trip id="veh126" type="veh_passenger" depart="32.55" departLane="best" departSpeed="max" from="-17173753#1" to="-1175234878"/>
    <trip id="veh127" type="veh_passenger" depart="32.80" departLane="best" from="993994388#0" to="992014224"/>
    <trip id="veh128" type="veh_passenger" depart="33.06" departLane="best" from="-17173874#2" to="-17187745#7"/>
    <trip id="veh129" type="veh_passenger" depart="33.32" departLane="best" departSpeed="max" from="-17188692" to="657748588#3"/>
    <trip id="veh130" type="veh_passenger" depart="33.58" departLane="best" from="518945890#0" to="570066574#0"/>
    <trip id="veh131" type="veh_passenger" depart="33.84" departLane="best" from="247975991#0" to="-17182473"/>
    <trip id="veh132" type="veh_passenger" depart="34.10" departLane="best" from="213569083" to="17187540"/>
    <trip id="veh133" type="veh_passenger" depart="34.35" departLane="best" from="-17176554#9" to="93827401#2"/>
    <trip id="veh135" type="veh_passenger" depart="34.87" departLane="best" from="17193693" to="17194369#0"/>
    <trip id="veh136" type="veh_passenger" depart="35.13" departLane="best" from="-17181157#0" to="-664457143#1"/>
    <trip id="veh137" type="veh_passenger" depart="35.39" departLane="best" from="17178595#1" to="-17178285#0"/>
    <trip id="veh138" type="veh_passenger" depart="35.65" departLane="best" departSpeed="max" from="-17176557#1" to="281971297#9"/>
    <trip id="veh139" type="veh_passenger" depart="35.90" departLane="best" from="-17189048#0" to="17179887#2"/>
    <trip id="veh140" type="veh_passenger" depart="36.16" departLane="best" from="17186389#0" to="17187058#1"/>
    <trip id="veh141" type="veh_passenger" depart="36.42" departLane="best" from="17178460#1" to="-17191531#0"/>
    <trip id="veh142" type="veh_passenger" depart="36.68" departLane="best" from="994970987" to="657454558#3"/>
    <trip id="veh143" type="veh_passenger" depart="36.94" departLane="best" from="-248955458#0" to="17176244#2"/>
    <trip id="veh144" type="veh_passenger" depart="37.20" departLane="best" from="657687588#2" to="17192616#3"/>
    <trip id="veh145" type="veh_passenger" depart="37.45" departLane="best" from="1018609998#7" to="17191549#0"/>
    <trip id="veh146" type="veh_passenger" depart="37.71" departLane="best" from="-17178732#0" to="-17191339#1"/>
    <trip id="veh147" type="veh_passenger" depart="37.97" departLane="best" from="17188093#1" to="17176126"/>
    <trip id="veh148" type="veh_passenger" depart="38.23" departLane="best" from="657717020#2" to="-1078041536#2"/>
    <trip id="veh149" type="veh_passenger" depart="38.49" departLane="best" from="-17174090#2" to="579450457#1"/>
    <trip id="veh150" type="veh_passenger" depart="38.74" departLane="best" from="-656588652" to="17175638#0"/>
    <trip id="veh151" type="veh_passenger" depart="39.00" departLane="best" from="217968231#1" to="17178304#1"/>
    <trip id="veh152" type="veh_passenger" depart="39.26" departLane="best" departSpeed="max" from="-17179526" to="-17179475#1"/>
    <trip id="veh153" type="veh_passenger" depart="39.52" departLane="best" from="-17191219" to="656588660#2"/>
    <trip id="veh154" type="veh_passenger" depart="39.78" departLane="best" from="17191978#6" to="35305343#1"/>
    <trip id="veh155" type="veh_passenger" depart="40.04" departLane="best" from="646636101#3" to="-17187477"/>
    <trip id="veh156" type="veh_passenger" depart="40.29" departLane="best" from="-17187654#2" to="17177229#6"/>
    <trip id="veh157" type="veh_passenger" depart="40.55" departLane="best" from="1118935869" to="58321338#2"/>
    <trip id="veh158" type="veh_passenger" depart="40.81" departLane="best" departSpeed="max" from="-61955709#1" to="17181249#2"/>
    <trip id="veh159" type="veh_passenger" depart="41.07" departLane="best" departSpeed="max" from="-17179969#1" to="-657748472#3"/>
    <trip id="veh160" type="veh_passenger" depart="41.33" departLane="best" from="339395611#2" to="889414545#0"/>
    <trip id="veh161" type="veh_passenger" depart="41.59" departLane="best" from="-17193307#0" to="574551591#4"/>
    <trip id="veh162" type="veh_passenger" depart="41.84" departLane="best" from="-1194775992" to="17189508"/>
    <trip id="veh163" type="veh_passenger" depart="42.10" departLane="best" from="-17192862#0" to="-657748488#4"/>
    <trip id="veh164" type="veh_passenger" depart="42.36" departLane="best" from="17192539#3" to="392235538"/>
    <trip id="veh165" type="veh_passenger" depart="42.62" departLane="best" from="-17193307#0" to="-17191731"/>
    <trip id="veh166" type="veh_passenger" depart="42.88" departLane="best" from="17191339#1" to="-17177690#28"/>
    <trip id="veh167" type="veh_passenger" depart="43.14" departLane="best" from="397998571#1" to="346391638#1"/>
    <trip id="veh168" type="veh_passenger" depart="43.39" departLane="best" from="17185940#3" to="17194266#0"/>
    <trip id="veh169" type="veh_passenger" depart="43.65" departLane="best" from="-843320858#3" to="222805762#1"/>
    <trip id="veh170" type="veh_passenger" depart="43.91" departLane="best" from="-17191937#1" to="17188862#0"/>
    <trip id="veh171" type="veh_passenger" depart="44.17" departLane="best" from="1175531132" to="17186219#8"/>
    <trip id="veh172" type="veh_passenger" depart="44.43" departLane="best" from="-17192616#3" to="392262597"/>
    <trip id="veh173" type="veh_passenger" depart="44.69" departLane="best" from="1123163595#0" to="17192822#0"/>
    <trip id="veh174" type="veh_passenger" depart="44.94" departLane="best" from="17179104#5" to="-850802844#10"/>
    <trip id="veh175" type="veh_passenger" depart="45.20" departLane="best" from="924637655#0" to="17175029#3"/>
    <trip id="veh176" type="veh_passenger" depart="45.46" departLane="best" from="657748637" to="-17178281#1"/>
    <trip id="veh177" type="veh_passenger" depart="45.72" departLane="best" from="85929114#2-AddedOffRampEdge" to="-17184819#6"/>
    <trip id="veh178" type="veh_passenger" depart="45.98" departLane="best" from="657748446" to="17191625#2"/>
    <trip id="veh179" type="veh_passenger" depart="46.24" departLane="best" from="-17176676#0" to="1076230029"/>
    <trip id="veh180" type="veh_passenger" depart="46.49" departLane="best" from="-17187224#0" to="-252795762#1"/>
    <trip id="veh181" type="veh_passenger" depart="46.75" departLane="best" from="-17176019#2" to="-17172998#6"/>
    <trip id="veh182" type="veh_passenger" depart="47.01" departLane="best" from="-33253864#0" to="17177929#0"/>
    <trip id="veh183" type="veh_passenger" depart="47.27" departLane="best" from="-17188002#4" to="17187862"/>
    <trip id="veh184" type="veh_passenger" depart="47.53" departLane="best" from="-1000648233#8" to="572762748#0"/>
    <trip id="veh185" type="veh_passenger" depart="47.79" departLane="best" from="-132400898#16" to="-17188491#6"/>
    <trip id="veh186" type="veh_passenger" depart="48.04" departLane="best" from="17188173#1" to="17185404#2"/>
    <trip id="veh187" type="veh_passenger" depart="48.30" departLane="best" from="-22970782#0" to="-17174170#0"/>
    <trip id="veh188" type="veh_passenger" depart="48.56" departLane="best" from="-17181249#1" to="41758737#1"/>
    <trip id="veh189" type="veh_passenger" depart="48.82" departLane="best" from="-17191628#3" to="283133312#0"/>
    <trip id="veh190" type="veh_passenger" depart="49.08" departLane="best" departSpeed="max" from="17186550#0" to="-176062592#1"/>
    <trip id="veh191" type="veh_passenger" depart="49.34" departLane="best" from="-17191327#1" to="-894432633#1"/>
    <trip id="veh192" type="veh_passenger" depart="49.59" departLane="best" from="-58267756#7" to="-17194155#5"/>
    <trip id="veh193" type="veh_passenger" depart="49.85" departLane="best" from="-17178007#2" to="-986978002#1"/>
    <trip id="veh194" type="veh_passenger" depart="50.11" departLane="best" from="658614631" to="17185954#0"/>
    <trip id="veh195" type="veh_passenger" depart="50.37" departLane="best" from="656588639#0" to="17180855#0"/>
    <trip id="veh196" type="veh_passenger" depart="50.63" departLane="best" from="17190838#1" to="17175888#0"/>
    <trip id="veh197" type="veh_passenger" depart="50.89" departLane="best" from="657748372" to="-17193486#2"/>
    <trip id="veh198" type="veh_passenger" depart="51.14" departLane="best" from="657717058#2" to="17178191#0"/>
    <trip id="veh199" type="veh_passenger" depart="51.40" departLane="best" from="17180243#0" to="1209846066#1"/>
    <trip id="veh200" type="veh_passenger" depart="51.66" departLane="best" from="659807233#8" to="-17187773#1"/>
    <trip id="veh201" type="veh_passenger" depart="51.92" departLane="best" from="-888062156#2" to="845507665#0"/>
    <trip id="veh202" type="veh_passenger" depart="52.18" departLane="best" from="17191978#3" to="17183786#1"/>
    <trip id="veh203" type="veh_passenger" depart="52.43" departLane="best" from="-17174835#1" to="17173270#1"/>
    <trip id="veh204" type="veh_passenger" depart="52.69" departLane="best" departSpeed="max" from="17178285#0" to="-511019990#1"/>
    <trip id="veh205" type="veh_passenger" depart="52.95" departLane="best" from="17193791#3" to="17190474#2"/>
    <trip id="veh206" type="veh_passenger" depart="53.21" departLane="best" from="-17182163" to="-17188623"/>
    <trip id="veh207" type="veh_passenger" depart="53.47" departLane="best" from="-17183793#1" to="-1208890831#0"/>
    <trip id="veh208" type="veh_passenger" depart="53.73" departLane="best" from="-17187294#5" to="132400898#7"/>
    <trip id="veh209" type="veh_passenger" depart="53.98" departLane="best" from="-252990556#1" to="-17174526#10"/>
    <trip id="veh210" type="veh_passenger" depart="54.24" departLane="best" from="-656608916#3" to="17182071#4"/>
    <trip id="veh211" type="veh_passenger" depart="54.50" departLane="best" from="-17183336#0" to="17187076"/>
    <trip id="veh212" type="veh_passenger" depart="54.76" departLane="best" from="103031694#2-AddedOnRampEdge" to="-17190091#7"/>
    <trip id="veh213" type="veh_passenger" depart="55.02" departLane="best" from="17180378#0" to="1073368924"/>
    <trip id="veh214" type="veh_passenger" depart="55.28" departLane="best" from="-17188851#0" to="17191494"/>
    <trip id="veh215" type="veh_passenger" depart="55.53" departLane="best" from="-17176545#2" to="1000648233#2"/>
    <trip id="veh216" type="veh_passenger" depart="55.79" departLane="best" departSpeed="max" from="-17181954" to="836950761#1"/>
    <trip id="veh217" type="veh_passenger" depart="56.05" departLane="best" from="658614597#0" to="-1360864270"/>
    <trip id="veh218" type="veh_passenger" depart="56.31" departLane="best" from="-17187641#1" to="291241928"/>
    <trip id="veh219" type="veh_passenger" depart="56.57" departLane="best" from="-791687667#0" to="17193448"/>
    <trip id="veh220" type="veh_passenger" depart="56.83" departLane="best" from="17181677#1" to="93907547#3"/>
    <trip id="veh221" type="veh_passenger" depart="57.08" departLane="best" from="17175065#3" to="739251518#3"/>
    <trip id="veh222" type="veh_passenger" depart="57.34" departLane="best" from="583609495#1" to="17180489#2"/>
    <trip id="veh223" type="veh_passenger" depart="57.60" departLane="best" from="17186514#3" to="167230526#1"/>
    <trip id="veh224" type="veh_passenger" depart="57.86" departLane="best" departSpeed="max" from="187985232" to="17175871#1"/>
    <trip id="veh225" type="veh_passenger" depart="58.12" departLane="best" from="613171099#1" to="17189953"/>
    <trip id="veh226" type="veh_passenger" depart="58.38" departLane="best" from="-901279227#0" to="-17191123#3"/>
    <trip id="veh227" type="veh_passenger" depart="58.63" departLane="best" from="-17187502#3" to="17182565#0"/>
    <trip id="veh228" type="veh_passenger" depart="58.89" departLane="best" from="17189939#0" to="17173934#1"/>
    <trip id="veh229" type="veh_passenger" depart="59.15" departLane="best" from="17177786#0" to="-17192455#2"/>
    <trip id="veh230" type="veh_passenger" depart="59.41" departLane="best" from="-17174206#5" to="-17193402#2"/>
    <trip id="veh231" type="veh_passenger" depart="59.67" departLane="best" departSpeed="max" from="-17189030#1" to="-303644428#0"/>
    <trip id="veh232" type="veh_passenger" depart="59.93" departLane="best" from="-132400904#0" to="-17180489#1"/>
    <trip id="veh233" type="veh_passenger" depart="60.18" departLane="best" from="-17186472" to="17186931#1"/>
    <trip id="veh234" type="veh_passenger" depart="60.44" departLane="best" from="17185566" to="-17173556#1"/>
    <trip id="veh235" type="veh_passenger" depart="60.70" departLane="best" from="-656398705#0" to="17175463#1"/>
    <trip id="veh236" type="veh_passenger" depart="60.96" departLane="best" from="-657454558#7" to="-17187264#3"/>
    <trip id="veh237" type="veh_passenger" depart="61.22" departLane="best" from="657499293#1" to="-657454549#1"/>
    <trip id="veh238" type="veh_passenger" depart="61.48" departLane="best" departSpeed="max" from="17174112#0" to="17187012"/>
    <trip id="veh239" type="veh_passenger" depart="61.73" departLane="best" departSpeed="max" from="303644428#0" to="17191169#0"/>
    <trip id="veh240" type="veh_passenger" depart="61.99" departLane="best" departSpeed="max" from="-306582915" to="-1076225879#6"/>
    <trip id="veh241" type="veh_passenger" depart="62.25" departLane="best" from="-17194138#1" to="17190602"/>
    <trip id="veh242" type="veh_passenger" depart="62.51" departLane="best" from="254407379#3-AddedOnRampEdge" to="1359237586"/>