<?xml version="1.0" encoding="UTF-8"?>

<!-- generated on 2025-02-18 11:24:18.636717 by osmWebWizard.py v1_21_0+0000-d7b3b481c43
<configuration>
    <net-file value="C:\Users\apurv\2025-02-18-11-23-40\osm.net.xml.gz"/>
    <output-trip-file value="C:\Users\apurv\2025-02-18-11-23-40\osm.motorcycle.trips.xml"/>
    <route-file value="C:\Users\apurv\2025-02-18-11-23-40\osm.motorcycle.rou.xml"/>
    <prefix value="motorcycle"/>
    <trip-attributes value="departLane=&quot;best&quot;"/>
    <fringe-start-attributes value="departSpeed=&quot;max&quot;"/>
    <vehicle-class value="motorcycle"/>
    <fringe-factor value="2"/>
    <vclass value="motorcycle"/>
    <via-edge-types value="highway.motorway,highway.motorway_link,highway.trunk_link,highway.primary_link,highway.secondary_link,highway.tertiary_link"/>
    <max-distance value="1200.0"/>
    <remove-loops value="True"/>
    <validate value="True"/>
    <end value="2100.0"/>
    <insertion-density value="0.2"/>
</configuration>
-->

<!-- generated on 2025-02-18 11:24:18 by Eclipse SUMO duarouter Version 1.21.0
<duarouterConfiguration xmlns:xsi="http://www.w3.org/2001/XMLSchema-instance" xsi:noNamespaceSchemaLocation="http://sumo.dlr.de/xsd/duarouterConfiguration.xsd">

    <input>
        <net-file value="C:\Users\apurv\2025-02-18-11-23-40\osm.net.xml.gz"/>
        <route-files value="C:\Users\apurv\2025-02-18-11-23-40\osm.motorcycle.trips.xml"/>
    </input>

    <output>
        <output-file value="C:\Users\apurv\2025-02-18-11-23-40\osm.motorcycle.trips.xml.tmp"/>
        <alternatives-output value="NUL"/>
        <write-trips value="true"/>
    </output>

    <processing>
        <remove-loops value="true"/>
    </processing>

    <time>
        <begin value="0.0"/>
        <end value="2100.0"/>
    </time>

    <report>
        <no-warnings value="true"/>
        <ignore-errors value="true"/>
        <no-step-log value="true"/>
    </report>

</duarouterConfiguration>
-->

<routes xmlns:xsi="http://www.w3.org/2001/XMLSchema-instance" xsi:noNamespaceSchemaLocation="http://sumo.dlr.de/xsd/routes_file.xsd">
    <trip id="motorcycle0" type="motorcycle_motorcycle" depart="0.00" departLane="best" from="1144381149#9" to="-657717065#3"/>
    <trip id="motorcycle1" type="motorcycle_motorcycle" depart="4.26" departLane="best" from="657499261#0" to="-17187129"/>
    <trip id="motorcycle2" type="motorcycle_motorcycle" depart="12.79" departLane="best" from="17176841" to="17172926"/>
    <trip id="motorcycle3" type="motorcycle_motorcycle" depart="17.05" departLane="best" from="-17178460#5" to="-857384169#5"/>
    <trip id="motorcycle4" type="motorcycle_motorcycle" depart="21.31" departLane="best" from="17179040#1" to="281971297#3"/>
    <trip id="motorcycle5" type="motorcycle_motorcycle" depart="25.57" departLane="best" from="-17193307#1" to="49298836#1"/>
    <trip id="motorcycle6" type="motorcycle_motorcycle" depart="29.83" departLane="best" from="-1358979849" to="-837719515#1"/>
    <trip id="motorcycle7" type="motorcycle_motorcycle" depart="38.36" departLane="best" departSpeed="max" from="-246570117" to="1000356135"/>
    <trip id="motorcycle8" type="motorcycle_motorcycle" depart="42.62" departLane="best" from="-17192187#1" to="17192697"/>
    <trip id="motorcycle9" type="motorcycle_motorcycle" depart="46.88" departLane="best" from="-17190091#2" to="17193760"/>
    <trip id="motorcycle10" type="motorcycle_motorcycle" depart="51.14" departLane="best" from="-656537639#0" to="-17181329#0"/>
    <trip id="motorcycle11" type="motorcycle_motorcycle" depart="55.41" departLane="best" from="-17179296#4" to="-17187144#3"/>
    <trip id="motorcycle12" type="motorcycle_motorcycle" depart="59.67" departLane="best" from="-17177311#3" to="-17192375#1"/>
    <trip id="motorcycle13" type="motorcycle_motorcycle" depart="63.93" departLane="best" from="657454560#0" to="17192160"/>
    <trip id="motorcycle14" type="motorcycle_motorcycle" depart="68.19" departLane="best" from="-17191070#0" to="17179448#0"/>
    <trip id="motorcycle15" type="motorcycle_motorcycle" depart="72.45" departLane="best" from="-17193980#1" to="17172853#1"/>
    <trip id="motorcycle16" type="motorcycle_motorcycle" depart="76.72" departLane="best" from="-887387091#1" to="-1091663347#0"/>
    <trip id="motorcycle17" type="motorcycle_motorcycle" depart="80.98" departLane="best" from="1272864687#0" to="17187294#2"/>
    <trip id="motorcycle18" type="motorcycle_motorcycle" depart="89.50" departLane="best" from="-17182139#2" to="-17190610#0"/>
    <trip id="motorcycle19" type="motorcycle_motorcycle" depart="93.76" departLane="best" from="1078041536#5" to="167367645"/>
    <trip id="motorcycle20" type="motorcycle_motorcycle" depart="98.02" departLane="best" from="-17176194" to="17181526#0"/>
    <trip id="motorcycle21" type="motorcycle_motorcycle" depart="102.29" departLane="best" from="1085864834" to="-17190375#0"/>
    <trip id="motorcycle22" type="motorcycle_motorcycle" depart="106.55" departLane="best" from="-17173003#1" to="-805507517#0"/>
    <trip id="motorcycle23" type="motorcycle_motorcycle" depart="119.33" departLane="best" departSpeed="max" from="-17191151" to="17175248#1"/>
    <trip id="motorcycle24" type="motorcycle_motorcycle" depart="123.60" departLane="best" from="-17175706#2" to="-17188509#3"/>
    <trip id="motorcycle25" type="motorcycle_motorcycle" depart="127.86" departLane="best" from="-1000356137#4" to="-657717042#1"/>
    <trip id="motorcycle26" type="motorcycle_motorcycle" depart="132.12" departLane="best" from="-17183092#0" to="-17187107#0"/>
    <trip id="motorcycle27" type="motorcycle_motorcycle" depart="136.38" departLane="best" from="-17188914#13" to="-777267100#0"/>
    <trip id="motorcycle28" type="motorcycle_motorcycle" depart="140.64" departLane="best" from="-17190700#0" to="-17177840#1"/>
    <trip id="motorcycle29" type="motorcycle_motorcycle" depart="144.91" departLane="best" from="17181407#0" to="17185611#0"/>
    <trip id="motorcycle30" type="motorcycle_motorcycle" depart="149.17" departLane="best" departSpeed="max" from="-17181675" to="17190613#2"/>
    <trip id="motorcycle31" type="motorcycle_motorcycle" depart="153.43" departLane="best" from="17187543#2" to="17178649#0"/>
    <trip id="motorcycle32" type="motorcycle_motorcycle" depart="157.69" departLane="best" from="-17184202#5" to="-17186268#4"/>
    <trip id="motorcycle33" type="motorcycle_motorcycle" depart="161.95" departLane="best" from="-732962962#0" to="17179995#0"/>
    <trip id="motorcycle34" type="motorcycle_motorcycle" depart="166.22" departLane="best" from="1076729528#3" to="17184635#6"/>
    <trip id="motorcycle35" type="motorcycle_motorcycle" depart="170.48" departLane="best" from="-1064633199" to="-17189532"/>
    <trip id="motorcycle36" type="motorcycle_motorcycle" depart="174.74" departLane="best" from="17176724#1" to="147267121"/>
    <trip id="motorcycle37" type="motorcycle_motorcycle" depart="183.26" departLane="best" from="-17184322#1" to="17188862#2"/>
    <trip id="motorcycle38" type="motorcycle_motorcycle" depart="187.53" departLane="best" from="17184540#5" to="-17187058#4"/>
    <trip id="motorcycle39" type="motorcycle_motorcycle" depart="191.79" departLane="best" from="-17185062#1" to="17186837"/>
    <trip id="motorcycle40" type="motorcycle_motorcycle" depart="196.05" departLane="best" from="-1357202281" to="-17191154#0"/>
    <trip id="motorcycle41" type="motorcycle_motorcycle" depart="200.31" departLane="best" from="-17188914#2" to="17187715#1"/>
    <trip id="motorcycle42" type="motorcycle_motorcycle" depart="204.57" departLane="best" from="-17180719#1" to="-17176554#7"/>
    <trip id="motorcycle43" type="motorcycle_motorcycle" depart="208.84" departLane="best" departSpeed="max" from="-949697313#1" to="-966877766#0"/>
    <trip id="motorcycle44" type="motorcycle_motorcycle" depart="213.10" departLane="best" from="-656588655#6" to="-656588648#2"/>
    <trip id="motorcycle45" type="motorcycle_motorcycle" depart="217.36" departLane="best" from="17193416#0" to="-17186219#5"/>
    <trip id="motorcycle46" type="motorcycle_motorcycle" depart="225.88" departLane="best" from="17186117#12" to="1085864814"/>
    <trip id="motorcycle47" type="motorcycle_motorcycle" depart="230.15" departLane="best" from="-1360550680#0" to="17180786#0"/>
    <trip id="motorcycle48" type="motorcycle_motorcycle" depart="234.41" departLane="best" from="-17193422#1" to="657748583#0"/>
    <trip id="motorcycle49" type="motorcycle_motorcycle" depart="238.67" departLane="best" from="658614367#3" to="-93952122#3"/>
    <trip id="motorcycle50" type="motorcycle_motorcycle" depart="242.93" departLane="best" from="93816733#0" to="17186232#0"/>
    <trip id="motorcycle51" type="motorcycle_motorcycle" depart="251.45" departLane="best" from="17193430#2" to="530366794#1"/>
    <trip id="motorcycle52" type="motorcycle_motorcycle" depart="255.72" departLane="best" from="17176704#5" to="17191916"/>
    <trip id="motorcycle53" type="motorcycle_motorcycle" depart="259.98" departLane="best" from="-17184500#3" to="-17184500#2"/>
    <trip id="motorcycle54" type="motorcycle_motorcycle" depart="264.24" departLane="best" from="-1356603494" to="1011711578"/>
    <trip id="motorcycle55" type="motorcycle_motorcycle" depart="268.50" departLane="best" from="-657454558#9" to="657454564"/>
    <trip id="motorcycle56" type="motorcycle_motorcycle" depart="272.76" departLane="best" from="17190159#0" to="17190123#0"/>
    <trip id="motorcycle57" type="motorcycle_motorcycle" depart="277.03" departLane="best" departSpeed="max" from="-17184677" to="-656537640"/>
    <trip id="motorcycle58" type="motorcycle_motorcycle" depart="281.29" departLane="best" from="17175370#2" to="17180939#3"/>
    <trip id="motorcycle59" type="motorcycle_motorcycle" depart="285.55" departLane="best" from="-657717007#4" to="657499249#0"/>
    <trip id="motorcycle60" type="motorcycle_motorcycle" depart="298.34" departLane="best" from="17174104#3" to="846352008#1"/>
    <trip id="motorcycle61" type="motorcycle_motorcycle" depart="302.60" departLane="best" from="17174011#1" to="17187105#0"/>
    <trip id="motorcycle63" type="motorcycle_motorcycle" depart="315.38" departLane="best" from="-793218599#0" to="252990556#2"/>
    <trip id="motorcycle64" type="motorcycle_motorcycle" depart="319.65" departLane="best" from="-17190838#3" to="17187705#0"/>
    <trip id="motorcycle65" type="motorcycle_motorcycle" depart="323.91" departLane="best" from="771264265#1" to="-17184567#0"/>
    <trip id="motorcycle66" type="motorcycle_motorcycle" depart="328.17" departLane="best" from="17177618" to="246261673#2"/>
    <trip id="motorcycle67" type="motorcycle_motorcycle" depart="336.69" departLane="best" from="-659143924#1" to="-49354013#1"/>
    <trip id="motorcycle68" type="motorcycle_motorcycle" depart="340.96" departLane="best" from="-887400089" to="17179526"/>
    <trip id="motorcycle69" type="motorcycle_motorcycle" depart="349.48" departLane="best" from="281971708#6" to="-253261237"/>
    <trip id="motorcycle70" type="motorcycle_motorcycle" depart="353.74" departLane="best" from="-857384169#0" to="17182099#2"/>
    <trip id="motorcycle71" type="motorcycle_motorcycle" depart="358.00" departLane="best" from="-657687182" to="-657717020#5"/>
    <trip id="motorcycle72" type="motorcycle_motorcycle" depart="362.27" departLane="best" from="17173593#1" to="-17185940#3"/>
    <trip id="motorcycle73" type="motorcycle_motorcycle" depart="366.53" departLane="best" from="17184877" to="17182626#1"/>
    <trip id="motorcycle74" type="motorcycle_motorcycle" depart="370.79" departLane="best" from="17181823#3" to="-657499234#3"/>
    <trip id="motorcycle75" type="motorcycle_motorcycle" depart="375.05" departLane="best" from="-17181407#2" to="17192759#0"/>
    <trip id="motorcycle76" type="motorcycle_motorcycle" depart="383.58" departLane="best" from="-17183511#3" to="-656608916#8"/>
    <trip id="motorcycle77" type="motorcycle_motorcycle" depart="387.84" departLane="best" departSpeed="max" from="17187295" to="1214142365"/>
    <trip id="motorcycle78" type="motorcycle_motorcycle" depart="392.10" departLane="best" from="-17194021#2" to="-1076225879#5"/>
    <trip id="motorcycle79" type="motorcycle_motorcycle" depart="396.36" departLane="best" from="17170306" to="17189426#4"/>
    <trip id="motorcycle80" type="motorcycle_motorcycle" depart="404.88" departLane="best" from="657687489#0" to="657687499#0"/>
    <trip id="motorcycle81" type="motorcycle_motorcycle" depart="409.15" departLane="best" from="17193785#2" to="252212280"/>
    <trip id="motorcycle82" type="motorcycle_motorcycle" depart="413.41" departLane="best" from="-1209186298#1" to="845947289#1"/>
    <trip id="motorcycle83" type="motorcycle_motorcycle" depart="417.67" departLane="best" from="657499235#12" to="657687638"/>
    <trip id="motorcycle84" type="motorcycle_motorcycle" depart="421.93" departLane="best" from="281971725" to="-247135482#1"/>
    <trip id="motorcycle85" type="motorcycle_motorcycle" depart="426.19" departLane="best" from="103031694#1" to="17189884#1"/>
    <trip id="motorcycle86" type="motorcycle_motorcycle" depart="430.46" departLane="best" from="739251516#0" to="657687597"/>
    <trip id="motorcycle87" type="motorcycle_motorcycle" depart="434.72" departLane="best" from="-17178209#1" to="657748361"/>
    <trip id="motorcycle88" type="motorcycle_motorcycle" depart="443.24" departLane="best" from="17183934#0" to="952800467"/>
    <trip id="motorcycle89" type="motorcycle_motorcycle" depart="456.03" departLane="best" from="-40498386" to="657454529#4"/>
    <trip id="motorcycle90" type="motorcycle_motorcycle" depart="460.29" departLane="best" from="17182889" to="17188559"/>
    <trip id="motorcycle91" type="motorcycle_motorcycle" depart="464.55" departLane="best" from="-17193096#0" to="-17190589#2"/>
    <trip id="motorcycle92" type="motorcycle_motorcycle" depart="473.08" departLane="best" from="245009629#1" to="17174225#0"/>
    <trip id="motorcycle93" type="motorcycle_motorcycle" depart="477.34" departLane="best" from="646636101#0" to="-524804783#1"/>
    <trip id="motorcycle94" type="motorcycle_motorcycle" depart="481.60" departLane="best" from="17186750#3" to="17192759#0"/>
    <trip id="motorcycle95" type="motorcycle_motorcycle" depart="485.86" departLane="best" from="-17173556#0" to="-739251512"/>
    <trip id="motorcycle96" type="motorcycle_motorcycle" depart="490.12" departLane="best" from="252993458#1" to="954501499"/>
    <trip id="motorcycle97" type="motorcycle_motorcycle" depart="494.39" departLane="best" from="-17180597#0" to="-46141114#2"/>
    <trip id="motorcycle98" type="motorcycle_motorcycle" depart="498.65" departLane="best" from="-17189645#3" to="-252561212#1"/>
    <trip id="motorcycle99" type="motorcycle_motorcycle" depart="502.91" departLane="best" from="17192300#2" to="1357721081#0"/>
    <trip id="motorcycle100" type="motorcycle_motorcycle" depart="511.43" departLane="best" from="-17179264#2" to="-17185291#0"/>
    <trip id="motorcycle101" type="motorcycle_motorcycle" depart="515.70" departLane="best" from="-17189685" to="-17179064#2"/>
    <trip id="motorcycle102" type="motorcycle_motorcycle" depart="519.96" departLane="best" from="-17180866#0" to="17191212#0"/>
    <trip id="motorcycle103" type="motorcycle_motorcycle" depart="524.22" departLane="best" from="-17188376" to="-17192869"/>
    <trip id="motorcycle104" type="motorcycle_motorcycle" depart="528.48" departLane="best" from="1144381149#9" to="17187073"/>
    <trip id="motorcycle105" type="motorcycle_motorcycle" depart="532.74" departLane="best" from="-17191978#7" to="-17191978#6"/>
    <trip id="motorcycle106" type="motorcycle_motorcycle" depart="537.01" departLane="best" from="-657717042#0" to="1194776567"/>
    <trip id="motorcycle107" type="motorcycle_motorcycle" depart="541.27" departLane="best" from="-17184131#0" to="17184776#2"/>
    <trip id="motorcycle108" type="motorcycle_motorcycle" depart="545.53" departLane="best" from="-30920791#1" to="161111266"/>
    <trip id="motorcycle109" type="motorcycle_motorcycle" depart="554.05" departLane="best" from="-657499235#7" to="921559833#0"/>
    <trip id="motorcycle110" type="motorcycle_motorcycle" depart="566.84" departLane="best" from="-526342596#5" to="17191522#3"/>
    <trip id="motorcycle111" type="motorcycle_motorcycle" depart="571.10" departLane="best" from="-17179788#1" to="1007523833"/>
    <trip id="motorcycle112" type="motorcycle_motorcycle" depart="588.15" departLane="best" from="-17173476#1" to="17191801"/>
    <trip id="motorcycle113" type="motorcycle_motorcycle" depart="592.41" departLane="best" from="17173636#1" to="17189554#0"/>
    <trip id="motorcycle114" type="motorcycle_motorcycle" depart="596.67" departLane="best" from="-68665698#3" to="17172926"/>
    <trip id="motorcycle115" type="motorcycle_motorcycle" depart="600.93" departLane="best" from="-857384169#1" to="-17176545#0"/>
    <trip id="motorcycle116" type="motorcycle_motorcycle" depart="609.46" departLane="best" from="-846352006" to="-657717052#0"/>
    <trip id="motorcycle117" type="motorcycle_motorcycle" depart="613.72" departLane="best" departSpeed="max" from="-17188071" to="657499268"/>
    <trip id="motorcycle118" type="motorcycle_motorcycle" depart="617.98" departLane="best" from="657748508#0" to="-17193353#1"/>
    <trip id="motorcycle119" type="motorcycle_motorcycle" depart="622.24" departLane="best" from="-17175214#0" to="-17175616#2"/>
    <trip id="motorcycle120" type="motorcycle_motorcycle" depart="626.51" departLane="best" from="1357772185#1" to="734490651#1"/>
    <trip id="motorcycle121" type="motorcycle_motorcycle" depart="635.03" departLane="best" from="-17191062#1" to="17190602"/>
    <trip id="motorcycle122" type="motorcycle_motorcycle" depart="639.29" departLane="best" from="17193761#1" to="-17186146"/>
    <trip id="motorcycle123" type="motorcycle_motorcycle" depart="643.55" departLane="best" departSpeed="max" from="-17190592" to="17190958#4"/>
    <trip id="motorcycle124" type="motorcycle_motorcycle" depart="652.08" departLane="best" from="-17177690#29" to="-17179665#4"/>
    <trip id="motorcycle125" type="motorcycle_motorcycle" depart="656.34" departLane="best" from="17190719#2" to="167373228#1"/>
    <trip id="motorcycle126" type="motorcycle_motorcycle" depart="669.13" departLane="best" from="1208894820" to="-17188914#3"/>
    <trip id="motorcycle127" type="motorcycle_motorcycle" depart="673.39" departLane="best" from="-17192152#2" to="17190988"/>
    <trip id="motorcycle128" type="motorcycle_motorcycle" depart="677.65" departLane="best" from="-17179995#0" to="1076724896#5"/>
    <trip id="motorcycle129" type="motorcycle_motorcycle" depart="681.91" departLane="best" from="17192385" to="-17192539#0"/>
    <trip id="motorcycle130" type="motorcycle_motorcycle" depart="690.44" departLane="best" from="17188914#0" to="17192282"/>
    <trip id="motorcycle131" type="motorcycle_motorcycle" depart="694.70" departLane="best" from="17192368" to="17193081#1"/>
    <trip id="motorcycle132" type="motorcycle_motorcycle" depart="698.96" departLane="best" departSpeed="max" from="-17188809#2" to="-17188586#4"/>
    <trip id="motorcycle133" type="motorcycle_motorcycle" depart="703.22" departLane="best" departSpeed="max" from="-17186837" to="-17185940#3"/>
    <trip id="motorcycle134" type="motorcycle_motorcycle" depart="711.74" departLane="best" from="-167230526#1" to="17178921#1"/>
    <trip id="motorcycle135" type="motorcycle_motorcycle" depart="720.27" departLane="best" from="17192057" to="17188862#0"/>
    <trip id="motorcycle136" type="motorcycle_motorcycle" depart="724.53" departLane="best" from="-17177597#0" to="22958566#3"/>
    <trip id="motorcycle137" type="motorcycle_motorcycle" depart="728.79" departLane="best" departSpeed="max" from="17182443" to="17176492"/>
    <trip id="motorcycle138" type="motorcycle_motorcycle" depart="733.05" departLane="best" from="-17175571" to="17173667"/>
    <trip id="motorcycle139" type="motorcycle_motorcycle" depart="737.32" departLane="best" from="17177274#0" to="-17187773#3"/>
    <trip id="motorcycle140" type="motorcycle_motorcycle" depart="741.58" departLane="best" from="17186550#1" to="-17184846"/>
    <trip id="motorcycle141" type="motorcycle_motorcycle" depart="745.84" departLane="best" from="-657454543#0" to="17194021#1"/>
    <trip id="motorcycle142" type="motorcycle_motorcycle" depart="754.36" departLane="best" from="-17176177#2" to="17174955#2"/>
    <trip id="motorcycle143" type="motorcycle_motorcycle" depart="762.89" departLane="best" from="-656537662#0" to="17192476#1"/>
    <trip id="motorcycle144" type="motorcycle_motorcycle" depart="767.15" departLane="best" from="-1208890845#1" to="17181835"/>
    <trip id="motorcycle145" type="motorcycle_motorcycle" depart="771.41" departLane="best" from="-93952122#2" to="291393923#1"/>
    <trip id="motorcycle146" type="motorcycle_motorcycle" depart="775.67" departLane="best" from="17173956#0" to="17192574"/>
    <trip id="motorcycle147" type="motorcycle_motorcycle" depart="784.20" departLane="best" from="-253251953" to="-17179391#0"/>
    <trip id="motorcycle148" type="motorcycle_motorcycle" depart="788.46" departLane="best" from="-17194005#0" to="132400898#4"/>
    <trip id="motorcycle149" type="motorcycle_motorcycle" depart="792.72" departLane="best" from="17191373#11" to="189707191#1"/>
    <trip id="motorcycle150" type="motorcycle_motorcycle" depart="796.98" departLane="best" from="-17182570#10" to="17189884#0"/>
    <trip id="motorcycle151" type="motorcycle_motorcycle" depart="801.25" departLane="best" from="-17194138#4" to="17179177"/>
    <trip id="motorcycle152" type="motorcycle_motorcycle" depart="805.51" departLane="best" from="17187595#1" to="-613147760#1"/>
    <trip id="motorcycle153" type="motorcycle_motorcycle" depart="809.77" departLane="best" from="281971707#7" to="-32683773#3"/>
    <trip id="motorcycle154" type="motorcycle_motorcycle" depart="814.03" departLane="best" from="-306849393#5" to="17183511#1"/>
    <trip id="motorcycle155" type="motorcycle_motorcycle" depart="822.56" departLane="best" from="880457944" to="-17190618#3"/>
    <trip id="motorcycle156" type="motorcycle_motorcycle" depart="826.82" departLane="best" from="901279227#1" to="-894432633#2"/>
    <trip id="motorcycle157" type="motorcycle_motorcycle" depart="831.08" departLane="best" departSpeed="max" from="-252994981#2" to="-17182670"/>
    <trip id="motorcycle158" type="motorcycle_motorcycle" depart="835.34" departLane="best" from="-17175097" to="17188634#1"/>
    <trip id="motorcycle159" type="motorcycle_motorcycle" depart="839.60" departLane="best" from="432389805#4" to="1076234460"/>
    <trip id="motorcycle160" type="motorcycle_motorcycle" depart="843.87" departLane="best" from="17175187#1" to="1091898956#0"/>
    <trip id="motorcycle161" type="motorcycle_motorcycle" depart="848.13" departLane="best" from="767427249#2" to="17180640#1"/>
    <trip id="motorcycle162" type="motorcycle_motorcycle" depart="852.39" departLane="best" from="529112456#5" to="17182665#1"/>
    <trip id="motorcycle163" type="motorcycle_motorcycle" depart="856.65" departLane="best" from="-49354858#2" to="17183427"/>
    <trip id="motorcycle164" type="motorcycle_motorcycle" depart="860.91" departLane="best" from="-17177308#1" to="-17183100#0"/>
    <trip id="motorcycle165" type="motorcycle_motorcycle" depart="865.18" departLane="best" from="17191625#3" to="1208890831#1"/>
    <trip id="motorcycle166" type="motorcycle_motorcycle" depart="869.44" departLane="best" from="-17192125" to="-17188975#0"/>
    <trip id="motorcycle167" type="motorcycle_motorcycle" depart="877.96" departLane="best" from="57841009#1" to="32787699#0"/>
    <trip id="motorcycle168" type="motorcycle_motorcycle" depart="882.22" departLane="best" from="-676997788#1" to="17194214#1"/>
    <trip id="motorcycle169" type="motorcycle_motorcycle" depart="890.75" departLane="best" from="-17188870#0" to="1231563923#0"/>
    <trip id="motorcycle170" type="motorcycle_motorcycle" depart="895.01" departLane="best" from="247972423#5" to="-17192455#1"/>
    <trip id="motorcycle171" type="motorcycle_motorcycle" depart="899.27" departLane="best" from="17184899" to="281971297#2"/>
    <trip id="motorcycle172" type="motorcycle_motorcycle" depart="903.53" departLane="best" from="-17173246#2" to="-92832689"/>
    <trip id="motorcycle173" type="motorcycle_motorcycle" depart="912.06" departLane="best" from="582604624#1" to="17190107#1"/>
    <trip id="motorcycle174" type="motorcycle_motorcycle" depart="916.32" departLane="best" from="857384170#5" to="59538067"/>
    <trip id="motorcycle175" type="motorcycle_motorcycle" depart="920.58" departLane="best" from="993772735#6" to="208615878#0"/>
    <trip id="motorcycle176" type="motorcycle_motorcycle" depart="924.84" departLane="best" from="739251520#3" to="-17173874#2"/>
    <trip id="motorcycle177" type="motorcycle_motorcycle" depart="929.10" departLane="best" from="-86057742#0" to="-17186620#1"/>
    <trip id="motorcycle178" type="motorcycle_motorcycle" depart="933.37" departLane="best" from="-1118935867#0" to="-17181135#1"/>
    <trip id="motorcycle179" type="motorcycle_motorcycle" depart="937.63" departLane="best" from="-17185533#1" to="17189873"/>
    <trip id="motorcycle180" type="motorcycle_motorcycle" depart="941.89" departLane="best" from="17190891#1" to="658614373#0"/>
    <trip id="motorcycle181" type="motorcycle_motorcycle" depart="946.15" departLane="best" from="-17188856#2" to="-657717005#0"/>
    <trip id="motorcycle182" type="motorcycle_motorcycle" depart="958.94" departLane="best" from="17185013#8" to="-132400964#2"/>
    <trip id="motorcycle183" type="motorcycle_motorcycle" depart="963.20" departLane="best" from="-17184999" to="17173934#1"/>
    <trip id="motorcycle184" type="motorcycle_motorcycle" depart="971.72" departLane="best" from="17189414#0" to="17181356#1"/>
    <trip id="motorcycle185" type="motorcycle_motorcycle" depart="975.99" departLane="best" from="17186219#13" to="-657748458#5"/>
    <trip id="motorcycle186" type="motorcycle_motorcycle" depart="980.25" departLane="best" from="442138969#2" to="-17188491#7"/>
    <trip id="motorcycle187" type="motorcycle_motorcycle" depart="984.51" departLane="best" from="-1209175991#0" to="987004654#0"/>
    <trip id="motorcycle188" type="motorcycle_motorcycle" depart="988.77" departLane="best" from="835606305" to="17181978#0"/>
    <trip id="motorcycle189" type="motorcycle_motorcycle" depart="993.03" departLane="best" from="88854464#1" to="1360506215"/>
    <trip id="motorcycle190" type="motorcycle_motorcycle" depart="997.30" departLane="best" from="653489683#2" to="-657687633#2"/>
    <trip id="motorcycle191" type="motorcycle_motorcycle" depart="1005.82" departLane="best" departSpeed="max" from="-351198491" to="-17182364#0"/>
    <trip id="motorcycle192" type="motorcycle_motorcycle" depart="1010.08" departLane="best" from="1360816999#0" to="1360816999#0"/>
    <trip id="motorcycle193" type="motorcycle_motorcycle" depart="1014.34" departLane="best" from="-582604624#0" to="-657748459#1"/>
    <trip id="motorcycle194" type="motorcycle_motorcycle" depart="1018.61" departLane="best" from="-17173556#0" to="1209851042#1"/>
    <trip id="motorcycle195" type="motorcycle_motorcycle" depart="1022.87" departLane="best" from="-17182565#3" to="-17176320#0"/>
    <trip id="motorcycle196" type="motorcycle_motorcycle" depart="1027.13" departLane="best" departSpeed="max" from="-876388721" to="33253864#1"/>
    <trip id="motorcycle197" type="motorcycle_motorcycle" depart="1031.39" departLane="best" from="-846354023#0" to="-954343745#0"/>
    <trip id="motorcycle198" type="motorcycle_motorcycle" depart="1035.65" departLane="best" from="-17189712" to="-17184949#0"/>
    <trip id="motorcycle199" type="motorcycle_motorcycle" depart="1039.91" departLane="best" from="-657717008#2" to="657717009#2"/>
    <trip id="motorcycle200" type="motorcycle_motorcycle" depart="1044.18" departLane="best" from="-17178084#6" to="-61831177"/>
    <trip id="motorcycle201" type="motorcycle_motorcycle" depart="1048.44" departLane="best" from="17192842#0" to="17192842#0"/>
    <trip id="motorcycle202" type="motorcycle_motorcycle" depart="1052.70" departLane="best" from="17181157#3" to="-913003729#0"/>
    <trip id="motorcycle203" type="motorcycle_motorcycle" depart="1056.96" departLane="best" from="17186814#2" to="1122559916#1"/>
    <trip id="motorcycle204" type="motorcycle_motorcycle" depart="1065.49" departLane="best" from="-739251518#2" to="-17192919#1"/>
    <trip id="motorcycle205" type="motorcycle_motorcycle" depart="1069.75" departLane="best" from="17182933#1" to="-17189022#1"/>
    <trip id="motorcycle206" type="motorcycle_motorcycle" depart="1074.01" departLane="best" departSpeed="max" from="-17170316#1" to="17193868#1"/>
    <trip id="motorcycle207" type="motorcycle_motorcycle" depart="1078.27" departLane="best" from="-17190613#0" to="17175751"/>
    <trip id="motorcycle208" type="motorcycle_motorcycle" depart="1082.53" departLane="best" from="-1357176309" to="392262597"/>
    <trip id="motorcycle209" type="motorcycle_motorcycle" depart="1086.80" departLane="best" from="-17188386#1" to="17190906#0"/>
    <trip id="motorcycle210" type="motorcycle_motorcycle" depart="1091.06" departLane="best" from="17189579#1" to="657687170"/>
    <trip id="motorcycle211" type="motorcycle_motorcycle" depart="1095.32" departLane="best" from="17179243#1" to="657687634#0"/>
    <trip id="motorcycle212" type="motorcycle_motorcycle" depart="1099.58" departLane="best" from="17188828#6" to="-1233072876#0"/>
    <trip id="motorcycle213" type="motorcycle_motorcycle" depart="1103.84" departLane="best" from="-17179598#0" to="17193876#0"/>
    <trip id="motorcycle214" type="motorcycle_motorcycle" depart="1108.11" departLane="best" from="17178348" to="656588559#0"/>
    <trip id="motorcycle215" type="motorcycle_motorcycle" depart="1112.37" departLane="best" from="-1076729526#3" to="-17188267"/>