<?xml version="1.0" encoding="UTF-8"?>

<!-- generated on 2025-01-21 14:40:20.380721 by osmWebWizard.py v1_21_0+0000-d7b3b481c43
<configuration>
    <net-file value="C:\Users\apurv\2025-01-21-14-39-56\osm.net.xml.gz"/>
    <output-trip-file value="C:\Users\apurv\2025-01-21-14-39-56\osm.passenger.trips.xml"/>
    <route-file value="C:\Users\apurv\2025-01-21-14-39-56\osm.passenger.rou.xml"/>
    <prefix value="veh"/>
    <trip-attributes value="departLane=&quot;best&quot;"/>
    <fringe-start-attributes value="departSpeed=&quot;max&quot;"/>
    <vehicle-class value="passenger"/>
    <lanes value="True"/>
    <fringe-factor value="5"/>
    <allow-fringe.min-length value="1000.0"/>
    <via-edge-types value="highway.motorway,highway.motorway_link,highway.trunk_link,highway.primary_link,highway.secondary_link,highway.tertiary_link"/>
    <min-distance value="300.0"/>
    <min-distance.fringe value="10.0"/>
    <remove-loops value="True"/>
    <validate value="True"/>
    <insertion-density value="12.0"/>
</configuration>
-->

<!-- generated on 2025-01-21 14:40:20 by Eclipse SUMO duarouter Version 1.21.0
<duarouterConfiguration xmlns:xsi="http://www.w3.org/2001/XMLSchema-instance" xsi:noNamespaceSchemaLocation="http://sumo.dlr.de/xsd/duarouterConfiguration.xsd">

    <input>
        <net-file value="C:\Users\apurv\2025-01-21-14-39-56\osm.net.xml.gz"/>
        <route-files value="C:\Users\apurv\2025-01-21-14-39-56\osm.passenger.trips.xml"/>
    </input>

    <output>
        <output-file value="C:\Users\apurv\2025-01-21-14-39-56\osm.passenger.trips.xml.tmp"/>
        <alternatives-output value="NUL"/>
        <write-trips value="true"/>
    </output>

    <processing>
        <remove-loops value="true"/>
    </processing>

    <time>
        <begin value="0.0"/>
        <end value="3600.0"/>
    </time>

    <report>
        <no-warnings value="true"/>
        <ignore-errors value="true"/>
        <no-step-log value="true"/>
    </report>

</duarouterConfiguration>
-->

<routes xmlns:xsi="http://www.w3.org/2001/XMLSchema-instance" xsi:noNamespaceSchemaLocation="http://sumo.dlr.de/xsd/routes_file.xsd">
    <vType id="veh_passenger" vClass="passenger"/>
    <trip id="veh0" type="veh_passenger" depart="0.00" departLane="best" from="17192247#1" to="-1194778782#2"/>
    <trip id="veh1" type="veh_passenger" depart="4.79" departLane="best" from="-657499234#1" to="-656588516#5"/>
    <trip id="veh3" type="veh_passenger" depart="14.36" departLane="best" from="706192993" to="-17186352#1"/>
    <trip id="veh4" type="veh_passenger" depart="19.15" departLane="best" from="93611660#6" to="-17170282#0"/>
    <trip id="veh5" type="veh_passenger" depart="23.94" departLane="best" from="-656588509#0" to="17181940#1"/>
    <trip id="veh6" type="veh_passenger" depart="28.73" departLane="best" departSpeed="max" from="-1185026583" to="-62009434#0"/>
    <trip id="veh7" type="veh_passenger" depart="33.51" departLane="best" from="-17193752#8" to="17188089#2"/>
    <trip id="veh8" type="veh_passenger" depart="38.30" departLane="best" from="-656588510#0" to="17191470#8"/>
    <trip id="veh9" type="veh_passenger" depart="43.09" departLane="best" from="656588772#3" to="-1085864761#1"/>
    <trip id="veh11" type="veh_passenger" depart="52.66" departLane="best" from="732294634#11" to="-339395611#5"/>
    <trip id="veh12" type="veh_passenger" depart="57.45" departLane="best" from="894432633#0" to="-739251513#14"/>
    <trip id="veh14" type="veh_passenger" depart="67.03" departLane="best" from="657716995#0" to="-17193752#3"/>
    <trip id="veh15" type="veh_passenger" depart="71.81" departLane="best" from="-656588772#12" to="526346249"/>
    <trip id="veh17" type="veh_passenger" depart="81.39" departLane="best" from="739251516#5" to="17188920#1"/>
    <trip id="veh18" type="veh_passenger" depart="86.18" departLane="best" from="657717028#0" to="17191166"/>
    <trip id="veh19" type="veh_passenger" depart="90.96" departLane="best" from="392235538#1" to="-17175661#6"/>
    <trip id="veh20" type="veh_passenger" depart="95.75" departLane="best" from="656588514#5" to="-657716997#4"/>
    <trip id="veh21" type="veh_passenger" depart="100.54" departLane="best" from="-17183292#1" to="656588771"/>
    <trip id="veh22" type="veh_passenger" depart="105.33" departLane="best" from="-17187214#1" to="657687638#0"/>
    <trip id="veh23" type="veh_passenger" depart="110.11" departLane="best" from="17192018" to="-739251516#9"/>
    <trip id="veh24" type="veh_passenger" depart="114.90" departLane="best" from="-739251516#0" to="656588514#4"/>
    <trip id="veh25" type="veh_passenger" depart="119.69" departLane="best" from="656588772#9" to="-739251516#5"/>
    <trip id="veh26" type="veh_passenger" depart="124.48" departLane="best" from="17193752#6" to="17194014#0"/>
    <trip id="veh27" type="veh_passenger" depart="129.26" departLane="best" from="300336241#0" to="526346249"/>
    <trip id="veh28" type="veh_passenger" depart="134.05" departLane="best" from="246270792#0" to="894432633#2"/>
    <trip id="veh29" type="veh_passenger" depart="138.84" departLane="best" from="93611660#13" to="246267709#1"/>
    <trip id="veh30" type="veh_passenger" depart="143.63" departLane="best" from="17182707#0" to="42736853#3"/>
    <trip id="veh31" type="veh_passenger" depart="148.41" departLane="best" from="657687638#2" to="-656588515#4"/>
    <trip id="veh32" type="veh_passenger" depart="153.20" departLane="best" from="656588515#2" to="-17170282#0"/>
    <trip id="veh33" type="veh_passenger" depart="157.99" departLane="best" from="-659143853#0" to="-657499235#18"/>
    <trip id="veh34" type="veh_passenger" depart="162.78" departLane="best" from="59524953" to="746887400#2"/>
    <trip id="veh35" type="veh_passenger" depart="167.56" departLane="best" from="659807228#0" to="-68665708#7"/>
    <trip id="veh36" type="veh_passenger" depart="172.35" departLane="best" from="-22788520#0" to="-93611660#3"/>
    <trip id="veh37" type="veh_passenger" depart="177.14" departLane="best" from="-739251513#16" to="17173686#3"/>
    <trip id="veh38" type="veh_passenger" depart="181.93" departLane="best" from="-17182833#2" to="-657499235#15"/>
    <trip id="veh39" type="veh_passenger" depart="186.71" departLane="best" from="17187197#3" to="-732294634#10"/>
    <trip id="veh40" type="veh_passenger" depart="191.50" departLane="best" from="-901279227#2" to="-656588516#19"/>
    <trip id="veh41" type="veh_passenger" depart="196.29" departLane="best" from="-985630302#1" to="17182579#5"/>
    <trip id="veh43" type="veh_passenger" depart="205.86" departLane="best" from="-17190375#2" to="246262191#0"/>
    <trip id="veh44" type="veh_passenger" depart="210.65" departLane="best" from="-656588516#7" to="1118932088#2"/>
    <trip id="veh46" type="veh_passenger" depart="220.23" departLane="best" from="93611660#9" to="17186051#5"/>
    <trip id="veh47" type="veh_passenger" depart="225.01" departLane="best" departSpeed="max" from="915713944#0" to="659143853#0"/>
    <trip id="veh48" type="veh_passenger" depart="229.80" departLane="best" from="1118932083" to="526342594#1"/>
    <trip id="veh49" type="veh_passenger" depart="234.59" departLane="best" departSpeed="max" from="31032840#0" to="17187197#5"/>
    <trip id="veh50" type="veh_passenger" depart="239.38" departLane="best" from="-656588772#8" to="246267709#1"/>
    <trip id="veh51" type="veh_passenger" depart="244.16" departLane="best" from="-17190699" to="1141521706#2"/>
    <trip id="veh52" type="veh_passenger" depart="248.95" departLane="best" from="-1118932091#1" to="887399503#1"/>
    <trip id="veh53" type="veh_passenger" depart="253.74" departLane="best" from="1000356135#2" to="-657499235#15"/>
    <trip id="veh54" type="veh_passenger" depart="258.53" departLane="best" departSpeed="max" from="17170282#0" to="-523954507#1"/>
    <trip id="veh55" type="veh_passenger" depart="263.31" departLane="best" from="739251513#14" to="1000356134#0"/>
    <trip id="veh56" type="veh_passenger" depart="268.10" departLane="best" from="-657499235#8" to="246267709#1"/>
    <trip id="veh57" type="veh_passenger" depart="272.89" departLane="best" from="17190375#3" to="-339395611#2"/>
    <trip id="veh58" type="veh_passenger" depart="277.68" departLane="best" from="62009429#4" to="17187197#9"/>
    <trip id="veh59" type="veh_passenger" depart="282.46" departLane="best" from="-656588514#5" to="17186051#7"/>
    <trip id="veh60" type="veh_passenger" depart="287.25" departLane="best" from="-1000356136#0" to="-732294634#4"/>
    <trip id="veh61" type="veh_passenger" depart="292.04" departLane="best" from="-1118932090#4" to="739251516#0"/>
    <trip id="veh62" type="veh_passenger" depart="296.83" departLane="best" from="659807231#0" to="-657499235#4"/>
    <trip id="veh63" type="veh_passenger" depart="301.61" departLane="best" from="-657716996" to="-732558808#2"/>
    <trip id="veh65" type="veh_passenger" depart="311.19" departLane="best" departSpeed="max" from="-17182579#5" to="62009429#2"/>
    <trip id="veh66" type="veh_passenger" depart="315.98" departLane="best" departSpeed="max" from="62009432" to="17193752#0"/>
    <trip id="veh67" type="veh_passenger" depart="320.76" departLane="best" departSpeed="max" from="1195336331#0" to="17188089#8"/>
    <trip id="veh68" type="veh_passenger" depart="325.55" departLane="best" from="-656588772#7" to="677185816#1"/>
    <trip id="veh69" type="veh_passenger" depart="330.34" departLane="best" from="-93611660#8" to="-656588515#2"/>
    <trip id="veh70" type="veh_passenger" depart="335.13" departLane="best" from="17178558#0" to="526346249"/>
    <trip id="veh71" type="veh_passenger" depart="339.91" departLane="best" from="-526342594#1" to="-68665708#2"/>
    <trip id="veh72" type="veh_passenger" depart="344.70" departLane="best" from="93611660#8" to="246270794#0"/>
    <trip id="veh73" type="veh_passenger" depart="349.49" departLane="best" from="1073368924" to="17182833#0"/>
    <trip id="veh74" type="veh_passenger" depart="354.28" departLane="best" from="-726077588" to="17191470#7"/>
    <trip id="veh75" type="veh_passenger" depart="359.06" departLane="best" departSpeed="max" from="-17182579#5" to="246262191#0"/>
    <trip id="veh76" type="veh_passenger" depart="363.85" departLane="best" from="-656588515#2" to="-732558808#1"/>
    <trip id="veh77" type="veh_passenger" depart="368.64" departLane="best" from="656588516#2" to="392235538#9"/>
    <trip id="veh78" type="veh_passenger" depart="373.43" departLane="best" from="-62009429#3" to="17193752#6"/>
    <trip id="veh79" type="veh_passenger" depart="378.21" departLane="best" from="-739251516#4" to="17190841#9"/>
    <trip id="veh80" type="veh_passenger" depart="383.00" departLane="best" departSpeed="max" from="1195336331#0" to="-656588516#3"/>
    <trip id="veh81" type="veh_passenger" depart="387.79" departLane="best" from="-656588772#2" to="61909709#2"/>
    <trip id="veh82" type="veh_passenger" depart="392.58" departLane="best" from="-17187197#3" to="-1118932093#0"/>
    <trip id="veh83" type="veh_passenger" depart="397.36" departLane="best" from="-93611660#9" to="17174599#2"/>
    <trip id="veh84" type="veh_passenger" depart="402.15" departLane="best" departSpeed="max" from="42736874#0" to="393601136#3"/>
    <trip id="veh85" type="veh_passenger" depart="406.94" departLane="best" from="915713944#8" to="-17189208#2"/>
    <trip id="veh86" type="veh_passenger" depart="411.73" departLane="best" from="-914843688#2" to="-739251513#16"/>
    <trip id="veh87" type="veh_passenger" depart="416.51" departLane="best" from="657717028#0" to="-656588772#8"/>
    <trip id="veh88" type="veh_passenger" depart="421.30" departLane="best" departSpeed="max" from="-441851381" to="1195336343"/>
    <trip id="veh89" type="veh_passenger" depart="426.09" departLane="best" from="-93611660#6" to="-657687638#1"/>
    <trip id="veh90" type="veh_passenger" depart="430.88" departLane="best" from="656588517#9" to="-739251513#7"/>
    <trip id="veh91" type="veh_passenger" depart="435.66" departLane="best" from="1118932083" to="-659143853#1"/>
    <trip id="veh92" type="veh_passenger" depart="440.45" departLane="best" from="17181940#0" to="-17178191#1"/>
    <trip id="veh93" type="veh_passenger" depart="445.24" departLane="best" from="985630302#4" to="657687638#0"/>
    <trip id="veh94" type="veh_passenger" depart="450.03" departLane="best" departSpeed="max" from="915713944#0" to="-739251513#9"/>
    <trip id="veh95" type="veh_passenger" depart="454.81" departLane="best" from="657716995#2" to="887399503#1"/>
    <trip id="veh96" type="veh_passenger" depart="459.60" departLane="best" from="-1197014066#1" to="-656588516#1"/>
    <trip id="veh97" type="veh_passenger" depart="464.39" departLane="best" from="-914843688#0" to="17182579#1"/>
    <trip id="veh98" type="veh_passenger" depart="469.18" departLane="best" from="739251516#6" to="480222422#0"/>
    <trip id="veh99" type="veh_passenger" depart="473.96" departLane="best" from="-656588772#7" to="-656588516#20"/>
    <trip id="veh100" type="veh_passenger" depart="478.75" departLane="best" from="1118932092#0" to="1118932088#3"/>
    <trip id="veh101" type="veh_passenger" depart="483.54" departLane="best" from="894432633#0" to="93611660#8"/>
    <trip id="veh102" type="veh_passenger" depart="488.33" departLane="best" from="-246267709#0" to="-657717028#0"/>
    <trip id="veh103" type="veh_passenger" depart="493.11" departLane="best" departSpeed="max" from="915713944#0" to="17191293#0"/>
    <trip id="veh104" type="veh_passenger" depart="497.90" departLane="best" from="17178704#1" to="59525039"/>
    <trip id="veh105" type="veh_passenger" depart="502.69" departLane="best" from="17178191#0" to="17191470#1"/>
    <trip id="veh106" type="veh_passenger" depart="507.48" departLane="best" from="17171319" to="-657717026#1"/>
    <trip id="veh107" type="veh_passenger" depart="512.26" departLane="best" departSpeed="max" from="-246267709#1" to="901279227#1"/>
    <trip id="veh108" type="veh_passenger" depart="517.05" departLane="best" from="-17183292#1" to="-526346216#2"/>
    <trip id="veh109" type="veh_passenger" depart="521.84" departLane="best" from="17188089#3" to="394051884#0"/>
    <trip id="veh110" type="veh_passenger" depart="526.63" departLane="best" from="-656588516#15" to="-17191470#1"/>
    <trip id="veh111" type="veh_passenger" depart="531.41" departLane="best" from="68665708#7" to="-656588772#6"/>
    <trip id="veh113" type="veh_passenger" depart="540.99" departLane="best" from="93611660#2" to="17191470#0"/>
    <trip id="veh114" type="veh_passenger" depart="545.78" departLane="best" departSpeed="max" from="-526342594#3" to="-523954507#1"/>
    <trip id="veh115" type="veh_passenger" depart="550.56" departLane="best" from="246270792#1" to="659143853#1"/>
    <trip id="veh116" type="veh_passenger" depart="555.35" departLane="best" from="-659143853#0" to="61831913#1"/>
    <trip id="veh117" type="veh_passenger" depart="560.14" departLane="best" from="-17182632#0" to="17173686#2"/>
    <trip id="veh118" type="veh_passenger" depart="564.93" departLane="best" from="-985630302#2" to="-93611660#9"/>
    <trip id="veh119" type="veh_passenger" depart="569.71" departLane="best" from="-17182632#1" to="-656588515#4"/>
    <trip id="veh120" type="veh_passenger" depart="574.50" departLane="best" from="656588772#7" to="-739251516#3"/>
    <trip id="veh121" type="veh_passenger" depart="579.29" departLane="best" from="-677185816#1" to="68665708#8"/>
    <trip id="veh122" type="veh_passenger" depart="584.08" departLane="best" from="-739251515#2" to="393580840#2"/>
    <trip id="veh123" type="veh_passenger" depart="588.86" departLane="best" from="657499235#17" to="441851381"/>
    <trip id="veh124" type="veh_passenger" depart="593.65" departLane="best" from="-17190841#1" to="93611660#10"/>
    <trip id="veh125" type="veh_passenger" depart="598.44" departLane="best" from="-17194014#4" to="1118932083"/>
    <trip id="veh126" type="veh_passenger" depart="603.23" departLane="best" from="-656588772#8" to="-659143853#0"/>
    <trip id="veh127" type="veh_passenger" depart="608.01" departLane="best" departSpeed="max" from="246261870#0" to="-739251516#8"/>
    <trip id="veh128" type="veh_passenger" depart="612.80" departLane="best" from="-17191470#6" to="-17190903"/>
    <trip id="veh129" type="veh_passenger" depart="617.59" departLane="best" departSpeed="max" from="-656588773#2" to="17193752#4"/>
    <trip id="veh130" type="veh_passenger" depart="622.38" departLane="best" from="17191470#7" to="657499235#15"/>
    <trip id="veh131" type="veh_passenger" depart="627.16" departLane="best" departSpeed="max" from="121501129" to="-732558808#1"/>
    <trip id="veh132" type="veh_passenger" depart="631.95" departLane="best" from="-17179250#1" to="-17187197#7"/>
    <trip id="veh133" type="veh_passenger" depart="636.74" departLane="best" from="93611660#9" to="-657499235#8"/>
    <trip id="veh134" type="veh_passenger" depart="641.53" departLane="best" departSpeed="max" from="-1013961557" to="656588511#0"/>
    <trip id="veh135" type="veh_passenger" depart="646.31" departLane="best" from="-17192146#1" to="-657499235#14"/>
    <trip id="veh136" type="veh_passenger" depart="651.10" departLane="best" from="-985630302#4" to="1118932088#2"/>
    <trip id="veh137" type="veh_passenger" depart="655.89" departLane="best" from="17182707#1" to="720481518#1"/>
    <trip id="veh138" type="veh_passenger" depart="660.68" departLane="best" from="732294634#9" to="17188089#3"/>
    <trip id="veh139" type="veh_passenger" depart="665.46" departLane="best" from="657499235#2" to="17191293#5"/>
    <trip id="veh140" type="veh_passenger" depart="670.25" departLane="best" from="-17194014#3" to="-17192146#3"/>
    <trip id="veh141" type="veh_passenger" depart="675.04" departLane="best" from="-657716997#0" to="732294634#3"/>
    <trip id="veh142" type="veh_passenger" depart="679.83" departLane="best" from="656588517#2" to="-659143853#0"/>
    <trip id="veh143" type="veh_passenger" depart="684.61" departLane="best" from="-656588517#9" to="-17190375#2"/>
    <trip id="veh144" type="veh_passenger" depart="689.40" departLane="best" from="656588515#3" to="720481518#1"/>
    <trip id="veh146" type="veh_passenger" depart="698.98" departLane="best" from="-246267709#0" to="-739251516#0"/>
    <trip id="veh148" type="veh_passenger" depart="708.55" departLane="best" from="-656588772#4" to="720481518#0"/>
    <trip id="veh149" type="veh_passenger" depart="713.34" departLane="best" from="-1118932093#3" to="59525039"/>
    <trip id="veh150" type="veh_passenger" depart="718.13" departLane="best" from="68665708#7" to="-739251516#1"/>
    <trip id="veh151" type="veh_passenger" depart="722.91" departLane="best" from="-656588772#4" to="-657499235#17"/>
    <trip id="veh152" type="veh_passenger" depart="727.70" departLane="best" from="-656588516#19" to="-17190841#13"/>
    <trip id="veh153" type="veh_passenger" depart="732.49" departLane="best" from="659143918#0" to="658614749#3"/>
    <trip id="veh154" type="veh_passenger" depart="737.28" departLane="best" from="-656588510#3" to="656588773#2"/>
    <trip id="veh155" type="veh_passenger" depart="742.06" departLane="best" from="-1155243136" to="-659143918#1"/>
    <trip id="veh156" type="veh_passenger" depart="746.85" departLane="best" from="-1118932093#2" to="-62009429#3"/>
    <trip id="veh157" type="veh_passenger" depart="751.64" departLane="best" from="-68665708#10" to="659143918#0"/>
    <trip id="veh158" type="veh_passenger" depart="756.43" departLane="best" from="914843688#5" to="-657687638#2"/>
    <trip id="veh159" type="veh_passenger" depart="761.21" departLane="best" from="17192247#3" to="-93611660#9"/>
    <trip id="veh160" type="veh_passenger" depart="766.00" departLane="best" from="915713944#6" to="17187197#4"/>
    <trip id="veh161" type="veh_passenger" depart="770.79" departLane="best" departSpeed="max" from="915713944#0" to="523954507#0"/>
    <trip id="veh162" type="veh_passenger" depart="775.58" departLane="best" from="-914843688#0" to="-657499235#16"/>
    <trip id="veh163" type="veh_passenger" depart="780.36" departLane="best" from="-17190375#0" to="1141521706#1"/>
    <trip id="veh164" type="veh_passenger" depart="785.15" departLane="best" departSpeed="max" from="42736874#0" to="-68665708#5"/>
    <trip id="veh165" type="veh_passenger" depart="789.94" departLane="best" from="17190368" to="17182579#5"/>
    <trip id="veh166" type="veh_passenger" depart="794.73" departLane="best" from="-746887400#3" to="17191166"/>
    <trip id="veh167" type="veh_passenger" depart="799.51" departLane="best" from="-656588772#11" to="480222422#1"/>
    <trip id="veh168" type="veh_passenger" depart="804.30" departLane="best" from="-1000356136#4" to="-739251513#9"/>
    <trip id="veh170" type="veh_passenger" depart="813.88" departLane="best" from="523954507#0" to="393580840#1"/>
    <trip id="veh171" type="veh_passenger" depart="818.66" departLane="best" from="739251513#7" to="-17183292#3"/>
    <trip id="veh172" type="veh_passenger" depart="823.45" departLane="best" departSpeed="max" from="246261870#0" to="-732558808#2"/>
    <trip id="veh173" type="veh_passenger" depart="828.24" departLane="best" from="657717026#1" to="-657716997#2"/>
    <trip id="veh174" type="veh_passenger" depart="833.03" departLane="best" departSpeed="max" from="394094281#0" to="-659143853#1"/>
    <trip id="veh175" type="veh_passenger" depart="837.81" departLane="best" from="-657716997#2" to="1000356136#3"/>
    <trip id="veh176" type="veh_passenger" depart="842.60" departLane="best" from="914843688#2" to="-657717026#0"/>
    <trip id="veh177" type="veh_passenger" depart="847.39" departLane="best" departSpeed="max" from="-17191166" to="-1194778782#0"/>
    <trip id="veh179" type="veh_passenger" depart="856.96" departLane="best" from="732294634#7" to="17194014#6"/>
    <trip id="veh180" type="veh_passenger" depart="861.75" departLane="best" from="-657687638#3" to="17188089#6"/>
    <trip id="veh181" type="veh_passenger" depart="866.54" departLane="best" from="-1000356136#0" to="-657716996"/>
    <trip id="veh182" type="veh_passenger" depart="871.33" departLane="best" from="659807228#1" to="17191293#1"/>
    <trip id="veh183" type="veh_passenger" depart="876.11" departLane="best" from="-22788520#0" to="17174599#2"/>
    <trip id="veh184" type="veh_passenger" depart="880.90" departLane="best" from="1118932083" to="-656588516#1"/>
    <trip id="veh185" type="veh_passenger" depart="885.69" departLane="best" departSpeed="max" from="1195336331#0" to="732294634#6"/>
    <trip id="veh186" type="veh_passenger" depart="890.48" departLane="best" from="656588517#2" to="-42736874#1"/>
    <trip id="veh188" type="veh_passenger" depart="900.05" departLane="best" from="17191470#5" to="-739251513#11"/>
    <trip id="veh189" type="veh_passenger" depart="904.84" departLane="best" from="-656588772#9" to="61831913#1"/>
    <trip id="veh190" type="veh_passenger" depart="909.63" departLane="best" from="246270792#2" to="-656588516#7"/>
    <trip id="veh191" type="veh_passenger" depart="914.41" departLane="best" from="523954507#2" to="-1194778782#2"/>
    <trip id="veh192" type="veh_passenger" depart="919.20" departLane="best" from="-656588517#1" to="17176346#2"/>
    <trip id="veh193" type="veh_passenger" depart="923.99" departLane="best" from="657716995#3" to="-17185954#0"/>
    <trip id="veh194" type="veh_passenger" depart="928.78" departLane="best" from="93611660#1" to="246262191#0"/>
    <trip id="veh196" type="veh_passenger" depart="938.35" departLane="best" departSpeed="max" from="121501129" to="656588772#5"/>
    <trip id="veh197" type="veh_passenger" depart="943.14" departLane="best" from="22820941#0" to="-1085864761#1"/>
    <trip id="veh198" type="veh_passenger" depart="947.93" departLane="best" from="-526346216#5" to="-656588510#4"/>
    <trip id="veh199" type="veh_passenger" depart="952.71" departLane="best" from="-17189208#3" to="-1118932089"/>
    <trip id="veh200" type="veh_passenger" depart="957.50" departLane="best" from="-339395611#4" to="-894432633#2"/>
    <trip id="veh202" type="veh_passenger" depart="967.08" departLane="best" from="-656588517#8" to="657716997#1"/>
    <trip id="veh203" type="veh_passenger" depart="971.86" departLane="best" from="1118932093#1" to="656588772#11"/>
    <trip id="veh204" type="veh_passenger" depart="976.65" departLane="best" departSpeed="max" from="246261870#0" to="-93611660#11"/>
    <trip id="veh205" type="veh_passenger" depart="981.44" departLane="best" from="17188089#3" to="887390886#0"/>
    <trip id="veh206" type="veh_passenger" depart="986.23" departLane="best" from="68665708#9" to="17194014#6"/>
    <trip id="veh207" type="veh_passenger" depart="991.01" departLane="best" departSpeed="max" from="394094281#0" to="17185702#1"/>
    <trip id="veh208" type="veh_passenger" depart="995.80" departLane="best" from="-657499235#11" to="17188089#6"/>
    <trip id="veh209" type="veh_passenger" depart="1000.59" departLane="best" from="732294634#0" to="59525039"/>
    <trip id="veh210" type="veh_passenger" depart="1005.38" departLane="best" departSpeed="max" from="1195336331#0" to="657499235#9"/>
    <trip id="veh211" type="veh_passenger" depart="1010.16" departLane="best" from="-656588517#4" to="246267709#1"/>
    <trip id="veh212" type="veh_passenger" depart="1014.95" departLane="best" departSpeed="max" from="62009432" to="17185370"/>
    <trip id="veh214" type="veh_passenger" depart="1024.53" departLane="best" departSpeed="max" from="-656588773#2" to="726077587#1"/>
    <trip id="veh215" type="veh_passenger" depart="1029.31" departLane="best" from="17178558#1" to="17194014#4"/>
    <trip id="veh217" type="veh_passenger" depart="1038.89" departLane="best" from="392235538#2" to="-17182707#1"/>
    <trip id="veh218" type="veh_passenger" depart="1043.68" departLane="best" departSpeed="max" from="-915713943" to="17187381#1"/>
    <trip id="veh219" type="veh_passenger" depart="1048.46" departLane="best" from="-93611660#11" to="656588511#1"/>
    <trip id="veh220" type="veh_passenger" depart="1053.25" departLane="best" from="-93611660#3" to="-732558808#1"/>
    <trip id="veh222" type="veh_passenger" depart="1062.83" departLane="best" departSpeed="max" from="657717026#0" to="62009434#2"/>
    <trip id="veh223" type="veh_passenger" depart="1067.61" departLane="best" from="739251516#8" to="-1085864761#1"/>
    <trip id="veh224" type="veh_passenger" depart="1072.40" departLane="best" from="739251513#10" to="61831913#1"/>
    <trip id="veh225" type="veh_passenger" depart="1077.19" departLane="best" from="-657716997#3" to="887399503#0"/>
    <trip id="veh226" type="veh_passenger" depart="1081.98" departLane="best" from="17178996#1" to="17193752#2"/>
    <trip id="veh227" type="veh_passenger" depart="1086.76" departLane="best" from="-656588510#0" to="-656588516#19"/>
    <trip id="veh228" type="veh_passenger" depart="1091.55" departLane="best" departSpeed="max" from="1011711578" to="-17170282#0"/>
    <trip id="veh229" type="veh_passenger" depart="1096.34" departLane="best" from="-914843688#4" to="-394094281#0"/>
    <trip id="veh230" type="veh_passenger" depart="1101.13" departLane="best" from="1194778782#3" to="-17192146#3"/>
    <trip id="veh231" type="veh_passenger" depart="1105.91" departLane="best" from="17191042#1" to="1196652373"/>
    <trip id="veh232" type="veh_passenger" depart="1110.70" departLane="best" from="-887399503#0" to="17190841#13"/>
    <trip id="veh233" type="veh_passenger" depart="1115.49" departLane="best" departSpeed="max" from="-1185026583" to="246267709#1"/>
    <trip id="veh234" type="veh_passenger" depart="1120.28" departLane="best" from="-17191470#8" to="17174522#2"/>
    <trip id="veh235" type="veh_passenger" depart="1125.06" departLane="best" from="-17174988#3" to="-894432633#1"/>
    <trip id="veh236" type="veh_passenger" depart="1129.85" departLane="best" from="-61909709#1" to="-732294634#7"/>
    <trip id="veh237" type="veh_passenger" depart="1134.64" departLane="best" from="62009429#2" to="894432633#1"/>
    <trip id="veh238" type="veh_passenger" depart="1139.43" departLane="best" from="574593441" to="-657499235#5"/>
    <trip id="veh239" type="veh_passenger" depart="1144.21" departLane="best" from="656588772#10" to="-17186051#2"/>
    <trip id="veh240" type="veh_passenger" depart="1149.00" departLane="best" from="1118932090#4" to="17187197#9"/>
    <trip id="veh241" type="veh_passenger" depart="1153.79" departLane="best" from="-985630302#4" to="-739251513#9"/>
    <trip id="veh242" type="veh_passenger" depart="1158.58" departLane="best" from="-17193752#9" to="656588516#16"/>
    <trip id="veh243" type="veh_passenger" depart="1163.36" departLane="best" from="-17194014#1" to="574593441"/>
    <trip id="veh244" type="veh_passenger" depart="1168.15" departLane="best" from="-887387091#5" to="62009434#1"/>
    <trip id="veh245" type="veh_passenger" depart="1172.94" departLane="best" from="1118932090#5" to="-339395611#5"/>
    <trip id="veh246" type="veh_passenger" depart="1177.73" departLane="best" departSpeed="max" from="-17191166" to="393580840#0"/>
    <trip id="veh247" type="veh_passenger" depart="1182.51" departLane="best" from="-526346216#1" to="-656588516#16"/>
    <trip id="veh248" type="veh_passenger" depart="1187.30" departLane="best" from="339395611#4" to="656588510#0"/>
    <trip id="veh249" type="veh_passenger" depart="1192.09" departLane="best" from="-246270794#0" to="17193752#7"/>
    <trip id="veh250" type="veh_passenger" depart="1196.88" departLane="best" from="-526342594#2" to="-17190841#9"/>
    <trip id="veh251" type="veh_passenger" depart="1201.66" departLane="best" from="-656588773#1" to="914843688#3"/>